@<TRIPOS>MOLECULE
CHEMBL228133
   49    53     0     0     0
SMALL
USER_CHARGES

@<TRIPOS>ATOM
      1 C1         -0.0710    2.1375    0.4672 C.ar      1 <0>        -0.0633
      2 C2          1.2235    2.5911    0.3161 C.ar      1 <0>        -0.1028
      3 C3          2.2591    1.6904    0.1428 C.ar      1 <0>        -0.0716
      4 C4          2.0042    0.3309    0.1199 C.ar      1 <0>        -0.1160
      5 C5          0.7139   -0.1345    0.2704 C.ar      1 <0>        -0.0997
      6 C6         -0.3340    0.7684    0.4454 C.ar      1 <0>        -0.0387
      7 C7         -1.7220    0.2749    0.6077 C.ar      1 <0>         0.2432
      8 C8         -2.1596   -0.8648   -0.0720 C.ar      1 <0>        -0.0602
      9 C9         -3.4875   -1.2926    0.1161 C.ar      1 <0>         0.3006
     10 N1         -3.6519   -2.3946   -0.6401 N.2       1 <0>        -0.4828
     11 H1         -0.6810   -1.7380   -1.2847 H         1 <0>         0.4284
     12 C10        -2.5418   -2.6686   -1.2668 C.2       1 <0>         0.3124
     13 N2         -1.5919   -1.7579   -0.9520 N.pl3     1 <0>        -0.5816
     14 N3         -4.2752   -0.5932    0.9355 N.ar      1 <0>        -0.4735
     15 C11        -3.8190    0.4741    1.5543 C.ar      1 <0>         0.3062
     16 N4         -2.5803    0.9045    1.4094 N.ar      1 <0>        -0.4994
     17 C12         3.6705    2.1923   -0.0222 C.3       1 <0>         0.0239
     18 C13         4.0360    3.0915    1.1623 C.3       1 <0>        -0.1410
     19 C14         5.4950    3.5331    1.0293 C.3       1 <0>        -0.0219
     20 N5          6.3682    2.3532    1.0211 N.4       1 <0>        -0.5025
     21 C15         6.0719    1.5224   -0.1521 C.3       1 <0>        -0.0086
     22 C16         4.6350    1.0035   -0.0646 C.3       1 <0>        -0.1414
     23 C17         3.7800    2.9760   -1.3047 C.ar      1 <0>        -0.0906
     24 C18         3.6688    2.3292   -2.5213 C.ar      1 <0>        -0.0943
     25 C19         3.7692    3.0475   -3.6979 C.ar      1 <0>        -0.0991
     26 C20         3.9809    4.4141   -3.6578 C.ar      1 <0>        -0.0281
     27 C21         4.0920    5.0609   -2.4399 C.ar      1 <0>        -0.1012
     28 C22         3.9859    4.3424   -1.2639 C.ar      1 <0>        -0.1234
     29 Cl1         4.1076    5.3169   -5.1352 Cl        1 <0>        -0.0489
     30 H2         -0.8781    2.8414    0.6066 H         1 <0>         0.1398
     31 H3          1.4285    3.6513    0.3328 H         1 <0>         0.1295
     32 H4          2.8166   -0.3675   -0.0165 H         1 <0>         0.1327
     33 H5          0.5160   -1.1961    0.2520 H         1 <0>         0.1233
     34 H6         -2.4008   -3.5020   -1.9391 H         1 <0>         0.2359
     35 H7         -4.4833    1.0169    2.2104 H         1 <0>         0.2121
     36 H8          3.3892    3.9689    1.1664 H         1 <0>         0.1196
     37 H9          3.9064    2.5386    2.0927 H         1 <0>         0.1016
     38 H10         5.6235    4.0860    0.0988 H         1 <0>         0.1392
     39 H11         5.7585    4.1737    1.8709 H         1 <0>         0.1391
     40 H12         7.3321    2.6497    0.9872 H         1 <0>         0.4337
     41 H13         6.1880    2.1182   -1.0574 H         1 <0>         0.1320
     42 H14         6.7612    0.6786   -0.1827 H         1 <0>         0.1380
     43 H15         4.5178    0.4073    0.8403 H         1 <0>         0.1012
     44 H16         4.4164    0.3884   -0.9374 H         1 <0>         0.1185
     45 H17         3.5040    1.2623   -2.5525 H         1 <0>         0.1336
     46 H18         3.6827    2.5420   -4.6484 H         1 <0>         0.1402
     47 H19         4.2576    6.1277   -2.4079 H         1 <0>         0.1406
     48 H20         4.0679    4.8479   -0.3131 H         1 <0>         0.1374
     49 H21         6.2132    1.8155    1.8606 H         1 <0>         0.4280
@<TRIPOS>BOND
     1    1    6 ar
     2    1    2 ar
     3    1   30 1
     4    2    3 ar
     5    2   31 1
     6    3    4 ar
     7    3   17 1
     8    4    5 ar
     9    4   32 1
    10    5    6 ar
    11    5   33 1
    12    6    7 1
    13    7   16 ar
    14    7    8 ar
    15    8    9 ar
    16    8   13 1
    17    9   10 1
    18    9   14 ar
    19   10   12 2
    20   11   13 1
    21   12   34 1
    22   12   13 1
    23   14   15 ar
    24   15   35 1
    25   15   16 ar
    26   17   22 1
    27   17   18 1
    28   17   23 1
    29   18   19 1
    30   18   36 1
    31   18   37 1
    32   19   20 1
    33   19   38 1
    34   19   39 1
    35   20   21 1
    36   20   40 1
    37   20   49 1
    38   21   22 1
    39   21   41 1
    40   21   42 1
    41   22   43 1
    42   22   44 1
    43   23   28 ar
    44   23   24 ar
    45   24   25 ar
    46   24   45 1
    47   25   26 ar
    48   25   46 1
    49   26   27 ar
    50   26   29 1
    51   27   28 ar
    52   27   47 1
    53   28   48 1
@<TRIPOS>MOLECULE
CHEMBL228133
   49    53     0     0     0
SMALL
USER_CHARGES

@<TRIPOS>ATOM
      1 C1         -0.0710    2.1380    0.4670 C.ar      1 <0>        -0.0651
      2 C2          1.2234    2.5914    0.3160 C.ar      1 <0>        -0.1134
      3 C3          2.2591    1.6907    0.1431 C.ar      1 <0>        -0.0706
      4 C4          2.0044    0.3311    0.1206 C.ar      1 <0>        -0.1247
      5 C5          0.7142   -0.1345    0.2705 C.ar      1 <0>        -0.0625
      6 C6         -0.3342    0.7686    0.4451 C.ar      1 <0>        -0.0408
      7 C7         -1.7214    0.2753    0.6072 C.ar      1 <0>         0.2755
      8 C8         -2.1624   -0.8718   -0.0766 C.ar      1 <0>        -0.0400
      9 C9         -3.4925   -1.2911    0.1193 C.ar      1 <0>         0.2776
     10 N1         -3.6516   -2.4136   -0.6543 N.pl3     1 <0>        -0.5799
     11 H1         -4.4603   -2.9425   -0.7389 H         1 <0>         0.4372
     12 C10        -2.4653   -2.6485   -1.2817 C.2       1 <0>         0.2874
     13 N2         -1.5936   -1.7430   -0.9412 N.2       1 <0>        -0.4737
     14 N3         -4.2743   -0.5951    0.9344 N.ar      1 <0>        -0.5119
     15 C11        -3.8177    0.4737    1.5541 C.ar      1 <0>         0.3225
     16 N4         -2.5792    0.9037    1.4078 N.ar      1 <0>        -0.5132
     17 C12         3.6705    2.1926   -0.0217 C.3       1 <0>         0.0243
     18 C13         4.0357    3.0923    1.1625 C.3       1 <0>        -0.1404
     19 C14         5.4947    3.5338    1.0297 C.3       1 <0>        -0.0219
     20 N5          6.3680    2.3541    1.0220 N.4       1 <0>        -0.5024
     21 C15         6.0719    1.5228   -0.1510 C.3       1 <0>        -0.0087
     22 C16         4.6351    1.0039   -0.0635 C.3       1 <0>        -0.1413
     23 C17         3.7802    2.9759   -1.3044 C.ar      1 <0>        -0.0883
     24 C18         3.6693    2.3287   -2.5209 C.ar      1 <0>        -0.0929
     25 C19         3.7698    3.0466   -3.6977 C.ar      1 <0>        -0.0990
     26 C20         3.9814    4.4133   -3.6580 C.ar      1 <0>        -0.0290
     27 C21         4.0923    5.0605   -2.4403 C.ar      1 <0>        -0.1025
     28 C22         3.9859    4.3424   -1.2641 C.ar      1 <0>        -0.1242
     29 Cl1         4.1083    5.3156   -5.1357 Cl        1 <0>        -0.0514
     30 H2         -0.8782    2.8420    0.6063 H         1 <0>         0.1354
     31 H3          1.4284    3.6517    0.3324 H         1 <0>         0.1260
     32 H4          2.8170   -0.3673   -0.0150 H         1 <0>         0.1302
     33 H5          0.5165   -1.1961    0.2524 H         1 <0>         0.1373
     34 H6         -2.2756   -3.4659   -1.9616 H         1 <0>         0.2341
     35 H7         -4.4817    1.0168    2.2102 H         1 <0>         0.2119
     36 H8          3.3888    3.9695    1.1662 H         1 <0>         0.1190
     37 H9          3.9059    2.5397    2.0930 H         1 <0>         0.1012
     38 H10         5.6233    4.0865    0.0990 H         1 <0>         0.1388
     39 H11         5.7579    4.1747    1.8711 H         1 <0>         0.1379
     40 H12         7.3319    2.6506    0.9882 H         1 <0>         0.4327
     41 H13         6.1882    2.1184   -1.0564 H         1 <0>         0.1315
     42 H14         6.7613    0.6791   -0.1811 H         1 <0>         0.1374
     43 H15         4.5178    0.4079    0.8415 H         1 <0>         0.1014
     44 H16         4.4167    0.3884   -0.9362 H         1 <0>         0.1195
     45 H17         3.5045    1.2618   -2.5518 H         1 <0>         0.1352
     46 H18         3.6835    2.5408   -4.6480 H         1 <0>         0.1399
     47 H19         4.2577    6.1273   -2.4087 H         1 <0>         0.1395
     48 H20         4.0677    4.8482   -0.3134 H         1 <0>         0.1368
     49 H21         6.2128    1.8166    1.8617 H         1 <0>         0.4277
@<TRIPOS>BOND
     1    1    6 ar
     2    1    2 ar
     3    1   30 1
     4    2    3 ar
     5    2   31 1
     6    3    4 ar
     7    3   17 1
     8    4    5 ar
     9    4   32 1
    10    5    6 ar
    11    5   33 1
    12    6    7 1
    13    7   16 ar
    14    7    8 ar
    15    8   13 1
    16    8    9 ar
    17    9   10 1
    18    9   14 ar
    19   10   11 1
    20   10   12 1
    21   12   13 2
    22   12   34 1
    23   14   15 ar
    24   15   16 ar
    25   15   35 1
    26   17   22 1
    27   17   18 1
    28   17   23 1
    29   18   19 1
    30   18   36 1
    31   18   37 1
    32   19   20 1
    33   19   38 1
    34   19   39 1
    35   20   21 1
    36   20   40 1
    37   20   49 1
    38   21   22 1
    39   21   41 1
    40   21   42 1
    41   22   43 1
    42   22   44 1
    43   23   28 ar
    44   23   24 ar
    45   24   25 ar
    46   24   45 1
    47   25   26 ar
    48   25   46 1
    49   26   27 ar
    50   26   29 1
    51   27   28 ar
    52   27   47 1
    53   28   48 1
@<TRIPOS>MOLECULE
CHEMBL374742
   45    48     0     0     0
SMALL
USER_CHARGES

@<TRIPOS>ATOM
      1 C1          0.4911    2.0580    0.4443 C.ar      1 <0>        -0.1102
      2 C2          1.7974    2.5102    0.4515 C.ar      1 <0>        -0.1123
      3 C3          2.8394    1.6154    0.2957 C.ar      1 <0>        -0.1058
      4 C4          2.5752    0.2683    0.1332 C.ar      1 <0>        -0.0843
      5 C5          1.2690   -0.1840    0.1270 C.ar      1 <0>        -0.1210
      6 C6          0.2269    0.7110    0.2813 C.ar      1 <0>        -0.1132
      7 C7          3.7112   -0.7071   -0.0376 C.3       1 <0>         0.0275
      8 C8          4.6852   -0.5695    1.1361 C.3       1 <0>        -0.1386
      9 C9          5.7929   -1.6161    0.9980 C.3       1 <0>        -0.0213
     10 N1          5.2042   -2.9606    1.0040 N.4       1 <0>        -0.5021
     11 C10         4.3240   -3.1241   -0.1593 C.3       1 <0>        -0.0081
     12 C11         3.1598   -2.1355   -0.0657 C.3       1 <0>        -0.1397
     13 C12         4.4322   -0.4198   -1.3293 C.ar      1 <0>        -0.1051
     14 C13         3.8012   -0.6541   -2.5376 C.ar      1 <0>        -0.0951
     15 C14         4.4569   -0.3922   -3.7236 C.ar      1 <0>        -0.1107
     16 C15         5.7564    0.1090   -3.7022 C.ar      1 <0>         0.0278
     17 C16         6.3873    0.3432   -2.4825 C.ar      1 <0>        -0.1194
     18 C17         5.7206    0.0828   -1.3023 C.ar      1 <0>        -0.1262
     19 C18         6.4668    0.3921   -4.9748 C.2       1 <0>        -0.2210
     20 C19         7.7361    0.8768   -5.0991 C.2       1 <0>         0.0854
     21 N2          8.0020    0.9911   -6.4159 N.pl3     1 <0>        -0.4662
     22 H1          8.8321    1.3107   -6.8028 H         1 <0>         0.4466
     23 N3          6.8734    0.5682   -7.1285 N.2       1 <0>        -0.2830
     24 C20         5.9551    0.2034   -6.2734 C.2       1 <0>         0.0697
     25 H2         -0.3229    2.7566    0.5705 H         1 <0>         0.1267
     26 H3          2.0038    3.5627    0.5784 H         1 <0>         0.1263
     27 H4          3.8599    1.9688    0.3006 H         1 <0>         0.1202
     28 H5          1.0625   -1.2364   -0.0003 H         1 <0>         0.1239
     29 H6         -0.7937    0.3577    0.2761 H         1 <0>         0.1266
     30 H7          5.1242    0.4282    1.1297 H         1 <0>         0.1167
     31 H8          4.1507   -0.7266    2.0730 H         1 <0>         0.0967
     32 H9          6.3269   -1.4579    0.0610 H         1 <0>         0.1405
     33 H10         6.4883   -1.5207    1.8320 H         1 <0>         0.1353
     34 H11         5.9406   -3.6493    0.9667 H         1 <0>         0.4318
     35 H12         4.8893   -2.9338   -1.0716 H         1 <0>         0.1329
     36 H13         3.9349   -4.1421   -0.1797 H         1 <0>         0.1354
     37 H14         2.5937   -2.3252    0.8462 H         1 <0>         0.0971
     38 H15         2.5084   -2.2573   -0.9312 H         1 <0>         0.1174
     39 H16         2.7938   -1.0430   -2.5531 H         1 <0>         0.1242
     40 H17         3.9634   -0.5758   -4.6666 H         1 <0>         0.1284
     41 H18         7.3948    0.7316   -2.4603 H         1 <0>         0.1248
     42 H19         6.2073    0.2678   -0.3561 H         1 <0>         0.1262
     43 H20         8.4065    1.1241   -4.2892 H         1 <0>         0.1810
     44 H21         4.9736   -0.1739   -6.5196 H         1 <0>         0.1875
     45 H22         4.6692   -3.0887    1.8498 H         1 <0>         0.4266
@<TRIPOS>BOND
     1    1    6 ar
     2    1    2 ar
     3    1   25 1
     4    2    3 ar
     5    2   26 1
     6    3    4 ar
     7    3   27 1
     8    4    5 ar
     9    4    7 1
    10    5    6 ar
    11    5   28 1
    12    6   29 1
    13    7   12 1
    14    7    8 1
    15    7   13 1
    16    8    9 1
    17    8   30 1
    18    8   31 1
    19    9   10 1
    20    9   32 1
    21    9   33 1
    22   10   11 1
    23   10   34 1
    24   10   45 1
    25   11   12 1
    26   11   35 1
    27   11   36 1
    28   12   37 1
    29   12   38 1
    30   13   18 ar
    31   13   14 ar
    32   14   15 ar
    33   14   39 1
    34   15   16 ar
    35   15   40 1
    36   16   17 ar
    37   16   19 1
    38   17   18 ar
    39   17   41 1
    40   18   42 1
    41   19   24 1
    42   19   20 2
    43   20   21 1
    44   20   43 1
    45   21   22 1
    46   21   23 1
    47   23   24 2
    48   24   44 1
@<TRIPOS>MOLECULE
CHEMBL1098938
   62    65     0     0     0
SMALL
USER_CHARGES

@<TRIPOS>ATOM
      1 C1         -0.0187    1.5258    0.0104 C.3       1 <0>        -0.1700
      2 C2          0.0021   -0.0041    0.0020 C.3       1 <0>         0.0940
      3 N1          0.7106   -0.4894    1.1889 N.pl3     1 <0>        -0.4545
      4 C3          2.0591   -0.7390    1.2909 C.ar      1 <0>         0.1286
      5 C4          3.1434   -0.6439    0.4279 C.ar      1 <0>        -0.1672
      6 C5          4.4035   -0.9912    0.8894 C.ar      1 <0>         0.3251
      7 N2          4.5902   -1.4096    2.1317 N.ar      1 <0>        -0.5206
      8 C6          3.5912   -1.5196    2.9985 C.ar      1 <0>         0.3700
      9 C7          2.2790   -1.1866    2.6096 C.ar      1 <0>         0.0059
     10 N3          1.0876   -1.1892    3.2334 N.2       1 <0>        -0.4330
     11 C8          0.1554   -0.7750    2.4101 C.2       1 <0>         0.3448
     12 C9         -1.2785   -0.6396    2.7460 C.2       1 <0>         0.1274
     13 C10        -1.8891   -0.9348    4.0485 C.2       1 <0>         0.3634
     14 N4         -3.1689   -0.6966    3.9645 N.2       1 <0>        -0.3412
     15 O1         -3.4447   -0.2500    2.6489 O.3       1 <0>         0.0526
     16 N5         -2.2210   -0.2305    1.9357 N.2       1 <0>        -0.2440
     17 N6         -1.2189   -1.3898    5.1764 N.pl3     1 <0>        -0.8019
     18 C11         3.8475   -1.9779    4.3307 C.1       1 <0>        -0.1380
     19 C12         4.0577   -2.3536    5.4229 C.1       1 <0>        -0.1021
     20 C13         4.3213   -2.8247    6.7924 C.3       1 <0>         0.2375
     21 C14         3.0105   -2.8598    7.5807 C.3       1 <0>        -0.1782
     22 C15         4.9235   -4.2302    6.7412 C.3       1 <0>        -0.1390
     23 O2          5.2390   -1.9364    7.4333 O.3       1 <0>        -0.5431
     24 O3          5.4672   -0.9010    0.0510 O.3       1 <0>        -0.3130
     25 C16         6.7425   -1.2714    0.5787 C.3       1 <0>         0.0424
     26 C17         7.8103   -1.1055   -0.5044 C.3       1 <0>         0.0408
     27 H1          7.7795   -0.0872   -0.8920 H         1 <0>         0.1545
     28 C18         9.1910   -1.3818    0.0942 C.3       1 <0>        -0.0963
     29 C19        10.2518   -1.0995   -0.9384 C.ar      1 <0>        -0.1290
     30 C20        10.6701   -2.1034   -1.7917 C.ar      1 <0>        -0.1404
     31 C21        11.6431   -1.8445   -2.7389 C.ar      1 <0>        -0.1076
     32 C22        12.1974   -0.5816   -2.8331 C.ar      1 <0>        -0.1019
     33 C23        11.7784    0.4224   -1.9803 C.ar      1 <0>        -0.1052
     34 C24        10.8023    0.1647   -1.0360 C.ar      1 <0>        -0.1030
     35 N7          7.5515   -2.0532   -1.5965 N.4       1 <0>        -0.6369
     36 H2          1.0039    1.9031    0.0027 H         1 <0>         0.0642
     37 H3         -0.5459    1.8868   -0.8726 H         1 <0>         0.0910
     38 H4         -0.5289    1.8773    0.9072 H         1 <0>         0.0666
     39 H5         -1.0205   -0.3814    0.0098 H         1 <0>         0.1137
     40 H6          0.5123   -0.3556   -0.8948 H         1 <0>         0.1031
     41 H7          3.0066   -0.3046   -0.5883 H         1 <0>         0.1523
     42 H8         -0.2610   -1.5392    5.1441 H         1 <0>         0.4290
     43 H9         -1.7087   -1.5583    5.9965 H         1 <0>         0.4211
     44 H10         2.3105   -3.5373    7.0918 H         1 <0>         0.0748
     45 H11         3.2057   -3.2086    8.5948 H         1 <0>         0.0820
     46 H12         2.5815   -1.8584    7.6172 H         1 <0>         0.0665
     47 H13         5.8573   -4.2052    6.1795 H         1 <0>         0.0676
     48 H14         5.1186   -4.5791    7.7552 H         1 <0>         0.0811
     49 H15         4.2235   -4.9078    6.2523 H         1 <0>         0.0770
     50 H16         4.9222   -1.0252    7.5010 H         1 <0>         0.3842
     51 H17         6.9839   -0.6322    1.4279 H         1 <0>         0.1178
     52 H18         6.7130   -2.3114    0.9036 H         1 <0>         0.0967
     53 H19         9.3469   -0.7386    0.9603 H         1 <0>         0.1257
     54 H20         9.2516   -2.4259    0.4013 H         1 <0>         0.1039
     55 H21        10.2371   -3.0900   -1.7182 H         1 <0>         0.1227
     56 H22        11.9705   -2.6290   -3.4051 H         1 <0>         0.1323
     57 H23        12.9581   -0.3796   -3.5726 H         1 <0>         0.1327
     58 H24        12.2117    1.4090   -2.0537 H         1 <0>         0.1332
     59 H25        10.4723    0.9501   -0.3723 H         1 <0>         0.1307
     60 H26         7.5800   -2.9958   -1.2376 H         1 <0>         0.4326
     61 H27         6.6409   -1.8710   -1.9912 H         1 <0>         0.4411
     62 H28         8.2557   -1.9438   -2.3107 H         1 <0>         0.4359
@<TRIPOS>BOND
     1    1    2 1
     2    1   36 1
     3    1   37 1
     4    1   38 1
     5    2    3 1
     6    2   39 1
     7    2   40 1
     8    3   11 1
     9    3    4 1
    10    4    9 ar
    11    4    5 ar
    12    5    6 ar
    13    5   41 1
    14    6    7 ar
    15    6   24 1
    16    7    8 ar
    17    8    9 ar
    18    8   18 1
    19    9   10 1
    20   10   11 2
    21   11   12 1
    22   12   16 2
    23   12   13 1
    24   13   14 2
    25   13   17 1
    26   14   15 1
    27   15   16 1
    28   17   42 1
    29   17   43 1
    30   18   19 3
    31   19   20 1
    32   20   21 1
    33   20   22 1
    34   20   23 1
    35   21   44 1
    36   21   45 1
    37   21   46 1
    38   22   47 1
    39   22   48 1
    40   22   49 1
    41   23   50 1
    42   24   25 1
    43   25   26 1
    44   25   51 1
    45   25   52 1
    46   26   27 1
    47   26   28 1
    48   26   35 1
    49   28   29 1
    50   28   53 1
    51   28   54 1
    52   29   34 ar
    53   29   30 ar
    54   30   31 ar
    55   30   55 1
    56   31   32 ar
    57   31   56 1
    58   32   33 ar
    59   32   57 1
    60   33   34 ar
    61   33   58 1
    62   34   59 1
    63   35   60 1
    64   35   61 1
    65   35   62 1
@<TRIPOS>MOLECULE
CHEMBL603197
   59    64     0     0     0
SMALL
USER_CHARGES

@<TRIPOS>ATOM
      1 C1         -3.2233   -0.0916   -0.3968 C.3       1 <0>        -0.0778
      2 C2         -2.0092   -0.9714   -0.2454 C.2       1 <0>         0.1149
      3 C3         -1.1285   -1.3447   -1.2849 C.ar      1 <0>         0.0676
      4 C4         -0.1383   -2.1668   -0.7048 C.ar      1 <0>         0.0250
      5 C5          0.8665   -2.6778   -1.5233 C.ar      1 <0>         0.1690
      6 N1          0.8555   -2.3750   -2.8079 N.ar      1 <0>        -0.4457
      7 C6         -0.0914   -1.5971   -3.3267 C.ar      1 <0>         0.3179
      8 N2         -1.0657   -1.0874   -2.5928 N.ar      1 <0>        -0.4370
      9 C7         -0.0521   -1.2916   -4.7758 C.ar      1 <0>        -0.0170
     10 C8         -0.1706    0.0238   -5.2272 C.ar      1 <0>        -0.0566
     11 C9         -0.1278    0.2582   -6.5960 C.ar      1 <0>         0.0553
     12 C10         0.0302   -0.8124   -7.4662 C.ar      1 <0>         0.0466
     13 N3          0.1400   -2.0453   -7.0153 N.ar      1 <0>        -0.4406
     14 C11         0.1109   -2.3200   -5.7184 C.ar      1 <0>         0.2252
     15 C12         0.2448   -3.7224   -5.2607 C.2       1 <0>        -0.1467
     16 C13        -0.5381   -4.3918   -4.2147 C.2       1 <0>        -0.1907
     17 C14        -0.0683   -5.6484   -4.1472 C.2       1 <0>        -0.0251
     18 O1          0.9158   -5.7965   -5.0471 O.3       1 <0>        -0.1736
     19 C15         1.1143   -4.6584   -5.7263 C.2       1 <0>         0.0256
     20 O2         -0.2399    1.5240   -7.0789 O.3       1 <0>        -0.3203
     21 C16        -0.1865    1.6840   -8.4979 C.3       1 <0>         0.0253
     22 C17        -0.3285    3.1663   -8.8497 C.3       1 <0>         0.0432
     23 H1         -1.2408    3.5602   -8.4019 H         1 <0>         0.1534
     24 C18        -0.3966    3.3254  -10.3698 C.3       1 <0>        -0.0555
     25 C19        -0.6592    4.7693  -10.7125 C.2       1 <0>        -0.2373
     26 C20        -1.8560    5.3281  -10.9519 C.2       1 <0>         0.1040
     27 N4         -1.7023    6.6592  -11.2292 N.pl3     1 <0>        -0.5846
     28 H2         -2.4250    7.2727  -11.4344 H         1 <0>         0.4264
     29 C21        -0.3689    6.9981  -11.1735 C.ar      1 <0>         0.0987
     30 C22         0.3424    5.8304  -10.8412 C.ar      1 <0>        -0.1170
     31 C23         1.7313    5.8750  -10.7082 C.ar      1 <0>        -0.1139
     32 C24         2.3935    7.0553  -10.8982 C.ar      1 <0>        -0.1193
     33 C25         1.6960    8.2107  -11.2222 C.ar      1 <0>        -0.0934
     34 C26         0.3260    8.1872  -11.3675 C.ar      1 <0>        -0.1111
     35 N5          0.8302    3.9057   -8.3313 N.4       1 <0>        -0.6365
     36 N6         -0.4396   -2.2637    0.6274 N.pl3     1 <0>        -0.4758
     37 H3          0.0614   -2.7646    1.2901 H         1 <0>         0.4536
     38 N7         -1.5952   -1.5088    0.8669 N.2       1 <0>        -0.2115
     39 H4         -2.9383    0.9498   -0.2473 H         1 <0>         0.0879
     40 H5         -3.6387   -0.2146   -1.3970 H         1 <0>         0.0888
     41 H6         -3.9711   -0.3737    0.3444 H         1 <0>         0.0860
     42 H7          1.6406   -3.3099   -1.1140 H         1 <0>         0.1807
     43 H8         -0.2931    0.8392   -4.5297 H         1 <0>         0.1516
     44 H9          0.0633   -0.6312   -8.5304 H         1 <0>         0.1636
     45 H10        -1.3303   -3.9614   -3.6202 H         1 <0>         0.1380
     46 H11        -0.4250   -6.4159   -3.4762 H         1 <0>         0.2044
     47 H12         1.8429   -4.5093   -6.5095 H         1 <0>         0.2085
     48 H13         0.7682    1.3121   -8.8698 H         1 <0>         0.0924
     49 H14        -0.9994    1.1220   -8.9578 H         1 <0>         0.1145
     50 H15         0.5504    3.0139  -10.8105 H         1 <0>         0.0999
     51 H16        -1.2021    2.7060  -10.7643 H         1 <0>         0.1220
     52 H17        -2.8003    4.8046  -10.9294 H         1 <0>         0.1792
     53 H18         2.2805    4.9800  -10.4556 H         1 <0>         0.1150
     54 H19         3.4680    7.0893  -10.7952 H         1 <0>         0.1310
     55 H20         2.2333    9.1360  -11.3686 H         1 <0>         0.1350
     56 H21        -0.2078    9.0918  -11.6186 H         1 <0>         0.1292
     57 H22         0.7366    4.8832   -8.5633 H         1 <0>         0.4379
     58 H23         0.8751    3.8007   -7.3288 H         1 <0>         0.4396
     59 H24         1.6748    3.5410   -8.7458 H         1 <0>         0.4298
@<TRIPOS>BOND
     1    1    2 1
     2    1   39 1
     3    1   40 1
     4    1   41 1
     5    2   38 2
     6    2    3 1
     7    3    8 ar
     8    3    4 ar
     9    4    5 ar
    10    4   36 1
    11    5    6 ar
    12    5   42 1
    13    6    7 ar
    14    7    8 ar
    15    7    9 1
    16    9   14 ar
    17    9   10 ar
    18   10   11 ar
    19   10   43 1
    20   11   12 ar
    21   11   20 1
    22   12   13 ar
    23   12   44 1
    24   13   14 ar
    25   14   15 1
    26   15   19 2
    27   15   16 1
    28   16   17 2
    29   16   45 1
    30   17   18 1
    31   17   46 1
    32   18   19 1
    33   19   47 1
    34   20   21 1
    35   21   22 1
    36   21   48 1
    37   21   49 1
    38   22   23 1
    39   22   24 1
    40   22   35 1
    41   24   25 1
    42   24   50 1
    43   24   51 1
    44   25   30 1
    45   25   26 2
    46   26   27 1
    47   26   52 1
    48   27   28 1
    49   27   29 1
    50   29   34 ar
    51   29   30 ar
    52   30   31 ar
    53   31   32 ar
    54   31   53 1
    55   32   33 ar
    56   32   54 1
    57   33   34 ar
    58   33   55 1
    59   34   56 1
    60   35   57 1
    61   35   58 1
    62   35   59 1
    63   36   37 1
    64   36   38 1
@<TRIPOS>MOLECULE
CHEMBL253457
   69    75     0     0     0
SMALL
USER_CHARGES

@<TRIPOS>ATOM
      1 C1         -0.0167    1.3791    0.0096 C.ar      1 <0>        -0.1094
      2 C2          1.1686    2.0924    0.0021 C.ar      1 <0>        -0.1108
      3 C3          2.3774    1.4269   -0.0135 C.ar      1 <0>        -0.1056
      4 C4          2.4026    0.0330   -0.0212 C.ar      1 <0>        -0.0469
      5 C5          1.2049   -0.6804   -0.0131 C.ar      1 <0>        -0.1010
      6 C6          0.0021   -0.0041    0.0020 C.ar      1 <0>        -0.1209
      7 C7          3.6978   -0.6876   -0.0384 C.ar      1 <0>        -0.1176
      8 C8          4.6777   -0.3464   -0.9613 C.ar      1 <0>         0.0050
      9 C9          5.8822   -1.0592   -0.9338 C.ar      1 <0>        -0.2484
     10 C10         6.9382   -0.7816   -1.8350 C.ar      1 <0>         0.4948
     11 N1          8.0479   -1.5039   -1.7418 N.ar      1 <0>        -0.5949
     12 C11         8.1732   -2.4588   -0.8351 C.ar      1 <0>         0.3860
     13 N2          7.2281   -2.7591    0.0241 N.ar      1 <0>        -0.5458
     14 C12         6.0635   -2.0923    0.0205 C.ar      1 <0>         0.3815
     15 N3          5.0935   -2.3829    0.8857 N.ar      1 <0>        -0.4573
     16 C13         3.9493   -1.7234    0.8867 C.ar      1 <0>         0.2413
     17 C14         2.9060   -2.0823    1.8752 C.ar      1 <0>        -0.0166
     18 C15         2.0789   -1.0949    2.4100 C.ar      1 <0>        -0.0772
     19 C16         1.1089   -1.4354    3.3304 C.ar      1 <0>        -0.1013
     20 C17         0.9560   -2.7531    3.7229 C.ar      1 <0>        -0.1484
     21 C18         1.7734   -3.7371    3.1960 C.ar      1 <0>        -0.0975
     22 C19         2.7431   -3.4098    2.2706 C.ar      1 <0>        -0.0696
     23 C20        -0.1050   -3.1181    4.7289 C.3       1 <0>         0.0430
     24 N4         -1.3556   -3.4379    4.0276 N.4       1 <0>        -0.3842
     25 C21        -1.8526   -2.2374    3.3447 C.3       1 <0>        -0.0131
     26 C22        -3.1110   -2.5843    2.5463 C.3       1 <0>        -0.1382
     27 C23        -4.1856   -3.1120    3.5014 C.3       1 <0>        -0.0153
     28 C24        -3.6299   -4.3192    4.2624 C.3       1 <0>        -0.1481
     29 C25        -2.3522   -3.9080    4.9972 C.3       1 <0>        -0.0029
     30 C26        -5.4001   -3.5290    2.7126 C.2       1 <0>         0.2692
     31 N5         -5.5700   -4.7462    2.1282 N.pl3     1 <0>        -0.5954
     32 H1         -4.9420   -5.4852    2.1459 H         1 <0>         0.4214
     33 C27        -6.8023   -4.7343    1.5058 C.ar      1 <0>         0.0816
     34 C28        -7.5179   -5.6624    0.7614 C.ar      1 <0>        -0.1564
     35 C29        -8.7616   -5.3273    0.2649 C.ar      1 <0>         0.1354
     36 C30        -9.2994   -4.0687    0.5060 C.ar      1 <0>        -0.1537
     37 C31        -8.6078   -3.1444    1.2361 C.ar      1 <0>        -0.0263
     38 C32        -7.3473   -3.4624    1.7487 C.ar      1 <0>         0.0332
     39 N6         -6.4412   -2.7798    2.4958 N.2       1 <0>        -0.4640
     40 F1         -9.4601   -6.2282   -0.4602 F         1 <0>        -0.1263
     41 N7          6.8171    0.2107   -2.7832 N.pl3     1 <0>        -0.8101
     42 H2         -0.9603    1.9042    0.0260 H         1 <0>         0.1269
     43 H3          1.1478    3.1722    0.0082 H         1 <0>         0.1302
     44 H4          3.3021    1.9848   -0.0200 H         1 <0>         0.1268
     45 H5          1.2183   -1.7603   -0.0194 H         1 <0>         0.1200
     46 H6         -0.9264   -0.5557    0.0079 H         1 <0>         0.1223
     47 H7          4.5154    0.4444   -1.6787 H         1 <0>         0.1456
     48 H8          9.0966   -3.0178   -0.8007 H         1 <0>         0.2088
     49 H9          2.1976   -0.0658    2.1046 H         1 <0>         0.1442
     50 H10         0.4681   -0.6716    3.7455 H         1 <0>         0.1362
     51 H11         1.6494   -4.7640    3.5066 H         1 <0>         0.1363
     52 H12         3.3775   -4.1795    1.8563 H         1 <0>         0.1441
     53 H13         0.2215   -3.9853    5.3030 H         1 <0>         0.1401
     54 H14        -0.2712   -2.2778    5.4029 H         1 <0>         0.1389
     55 H15        -2.0910   -1.4722    4.0835 H         1 <0>         0.1358
     56 H16        -1.0856   -1.8612    2.6678 H         1 <0>         0.1386
     57 H17        -3.4795   -1.6913    2.0415 H         1 <0>         0.1230
     58 H18        -2.8737   -3.3493    1.8070 H         1 <0>         0.0889
     59 H19        -4.4601   -2.3298    4.2091 H         1 <0>         0.1274
     60 H20        -4.3693   -4.6662    4.9842 H         1 <0>         0.1223
     61 H21        -3.4033   -5.1202    3.5587 H         1 <0>         0.0867
     62 H22        -1.9541   -4.7652    5.5402 H         1 <0>         0.1381
     63 H23        -2.5799   -3.1072    5.7007 H         1 <0>         0.1369
     64 H24        -7.1034   -6.6414    0.5714 H         1 <0>         0.1396
     65 H25       -10.2734   -3.8189    0.1120 H         1 <0>         0.1502
     66 H26        -9.0349   -2.1691    1.4173 H         1 <0>         0.1461
     67 H27         6.0000    0.7303   -2.8398 H         1 <0>         0.4141
     68 H28         7.5490    0.3897   -3.3941 H         1 <0>         0.4207
     69 H29        -1.1824   -4.1622    3.3468 H         1 <0>         0.4219
@<TRIPOS>BOND
     1    1    6 ar
     2    1    2 ar
     3    1   42 1
     4    2    3 ar
     5    2   43 1
     6    3    4 ar
     7    3   44 1
     8    4    5 ar
     9    4    7 1
    10    5    6 ar
    11    5   45 1
    12    6   46 1
    13    7   16 ar
    14    7    8 ar
    15    8    9 ar
    16    8   47 1
    17    9   14 ar
    18    9   10 ar
    19   10   11 ar
    20   10   41 1
    21   11   12 ar
    22   12   13 ar
    23   12   48 1
    24   13   14 ar
    25   14   15 ar
    26   15   16 ar
    27   16   17 1
    28   17   22 ar
    29   17   18 ar
    30   18   19 ar
    31   18   49 1
    32   19   20 ar
    33   19   50 1
    34   20   21 ar
    35   20   23 1
    36   21   22 ar
    37   21   51 1
    38   22   52 1
    39   23   24 1
    40   23   53 1
    41   23   54 1
    42   24   29 1
    43   24   25 1
    44   24   69 1
    45   25   26 1
    46   25   55 1
    47   25   56 1
    48   26   27 1
    49   26   57 1
    50   26   58 1
    51   27   28 1
    52   27   30 1
    53   27   59 1
    54   28   29 1
    55   28   60 1
    56   28   61 1
    57   29   62 1
    58   29   63 1
    59   30   39 2
    60   30   31 1
    61   31   32 1
    62   31   33 1
    63   33   38 ar
    64   33   34 ar
    65   34   35 ar
    66   34   64 1
    67   35   36 ar
    68   35   40 1
    69   36   37 ar
    70   36   65 1
    71   37   38 ar
    72   37   66 1
    73   38   39 1
    74   41   67 1
    75   41   68 1
@<TRIPOS>MOLECULE
CHEMBL228652
   48    51     0     0     0
SMALL
USER_CHARGES

@<TRIPOS>ATOM
      1 C1         -1.3933    0.5554   -3.0349 C.ar      1 <0>        -0.1047
      2 C2         -0.3809    1.3132   -3.5958 C.ar      1 <0>        -0.1090
      3 C3          0.9272    0.8662   -3.5564 C.ar      1 <0>        -0.1632
      4 C4          1.2294   -0.3400   -2.9570 C.ar      1 <0>        -0.1043
      5 C5          0.2139   -1.1071   -2.3906 C.ar      1 <0>         0.0240
      6 C6         -1.1023   -0.6517   -2.4326 C.ar      1 <0>        -0.0852
      7 C7          0.5327   -2.4052   -1.7451 C.2       1 <0>        -0.1710
      8 C8         -0.3858   -3.2824   -1.1412 C.2       1 <0>        -0.1088
      9 C9          0.3389   -4.3641   -0.6721 C.2       1 <0>        -0.0057
     10 N1          1.6650   -4.1514   -0.9822 N.pl3     1 <0>        -0.5100
     11 H1          2.3961   -4.7528   -0.7706 H         1 <0>         0.4307
     12 C10         1.7820   -2.9749   -1.6327 C.2       1 <0>         0.0488
     13 C11        -0.1864   -5.4851    0.0042 C.2       1 <0>         0.0885
     14 C12         0.4287   -6.7161   -0.1178 C.2       1 <0>        -0.2102
     15 C13        -0.2227   -8.0375   -0.2582 C.ar      1 <0>        -0.0691
     16 C14        -1.5523   -8.4434   -0.3090 C.ar      1 <0>        -0.0661
     17 C15        -1.8539   -9.7887   -0.4495 C.ar      1 <0>         0.1496
     18 C16        -0.8288  -10.7244   -0.5388 C.ar      1 <0>        -0.1090
     19 C17         0.4907  -10.3261   -0.4883 C.ar      1 <0>        -0.1063
     20 C18         0.8105   -8.9799   -0.3481 C.ar      1 <0>         0.1142
     21 N2          2.0347   -8.3229   -0.2721 N.am      1 <0>        -0.6385
     22 C19         1.8702   -6.9955   -0.1426 C.2       1 <0>         0.5646
     23 O1          2.7611   -6.1689   -0.0575 O.2       1 <0>        -0.5325
     24 N3         -3.1909  -10.2061   -0.5011 N.am      1 <0>        -0.6839
     25 C20        -4.1158   -9.4319   -1.1025 C.2       1 <0>         0.7068
     26 O2         -3.8078   -8.3344   -1.5259 O.2       1 <0>        -0.5779
     27 N4         -5.3821   -9.8741   -1.2345 N.am      1 <0>        -0.8593
     28 C21         2.0248    1.6972   -4.1696 C.3       1 <0>         0.0484
     29 N5          2.5665    2.6154   -3.1589 N.4       1 <0>        -0.6371
     30 H2         -2.4126    0.9112   -3.0644 H         1 <0>         0.1357
     31 H3         -0.6130    2.2572   -4.0664 H         1 <0>         0.1292
     32 H4          2.2512   -0.6885   -2.9274 H         1 <0>         0.1288
     33 H5         -1.8934   -1.2424   -1.9947 H         1 <0>         0.1354
     34 H6         -1.4531   -3.1390   -1.0589 H         1 <0>         0.1517
     35 H7          2.7032   -2.5490   -2.0019 H         1 <0>         0.1693
     36 H8         -1.0693   -5.3810    0.6174 H         1 <0>         0.1642
     37 H9         -2.3455   -7.7138   -0.2391 H         1 <0>         0.1497
     38 H10        -1.0681  -11.7719   -0.6482 H         1 <0>         0.1385
     39 H11         1.2781  -11.0619   -0.5583 H         1 <0>         0.1360
     40 H12         2.8967   -8.7660   -0.3118 H         1 <0>         0.4214
     41 H13        -3.4505  -11.0521   -0.1041 H         1 <0>         0.4111
     42 H14        -5.6278  -10.7495   -0.8968 H         1 <0>         0.4010
     43 H15        -6.0477   -9.3168   -1.6673 H         1 <0>         0.4207
     44 H16         2.8189    1.0425   -4.5285 H         1 <0>         0.1384
     45 H17         1.6225    2.2717   -5.0040 H         1 <0>         0.1394
     46 H18         3.3014    3.1718   -3.5695 H         1 <0>         0.4366
     47 H19         1.8314    3.2215   -2.8267 H         1 <0>         0.4347
     48 H20         2.9389    2.0836   -2.3865 H         1 <0>         0.4345
@<TRIPOS>BOND
     1    1    6 ar
     2    1    2 ar
     3    1   30 1
     4    2    3 ar
     5    2   31 1
     6    3    4 ar
     7    3   28 1
     8    4    5 ar
     9    4   32 1
    10    5    6 ar
    11    5    7 1
    12    6   33 1
    13    7   12 2
    14    7    8 1
    15    8    9 2
    16    8   34 1
    17    9   10 1
    18    9   13 1
    19   10   11 1
    20   10   12 1
    21   12   35 1
    22   13   14 2
    23   13   36 1
    24   14   22 1
    25   14   15 1
    26   15   20 ar
    27   15   16 ar
    28   16   17 ar
    29   16   37 1
    30   17   18 ar
    31   17   24 1
    32   18   19 ar
    33   18   38 1
    34   19   20 ar
    35   19   39 1
    36   20   21 1
    37   21   22 am
    38   21   40 1
    39   22   23 2
    40   24   25 am
    41   24   41 1
    42   25   26 2
    43   25   27 am
    44   27   42 1
    45   27   43 1
    46   28   29 1
    47   28   44 1
    48   28   45 1
    49   29   46 1
    50   29   47 1
    51   29   48 1
@<TRIPOS>MOLECULE
CHEMBL508794
   76    83     0     0     0
SMALL
USER_CHARGES

@<TRIPOS>ATOM
      1 C1         -0.0167    1.3792    0.0096 C.ar      1 <0>        -0.1080
      2 C2          1.1686    2.0925    0.0021 C.ar      1 <0>        -0.1111
      3 C3          2.3774    1.4272   -0.0134 C.ar      1 <0>        -0.0994
      4 C4          2.4027    0.0331   -0.0211 C.ar      1 <0>        -0.0529
      5 C5          1.2048   -0.6804   -0.0130 C.ar      1 <0>        -0.0986
      6 C6          0.0021   -0.0041    0.0020 C.ar      1 <0>        -0.1234
      7 C7          3.6976   -0.6874   -0.0382 C.ar      1 <0>        -0.0764
      8 C8          4.6816   -0.3456   -0.9640 C.ar      1 <0>        -0.0182
      9 C9          5.8813   -1.0546   -0.9365 C.ar      1 <0>        -0.0386
     10 C10         6.0622   -2.0855    0.0167 C.ar      1 <0>         0.1737
     11 C11         7.3354   -2.8135    0.0199 C.2       1 <0>        -0.1217
     12 C12         8.2918   -2.4981   -0.8626 C.2       1 <0>         0.0967
     13 N1          8.1356   -1.5027   -1.7936 N.pl3     1 <0>        -0.4442
     14 C13         6.9733   -0.7662   -1.8712 C.2       1 <0>         0.1866
     15 N2          7.1267    0.0981   -2.8487 N.2       1 <0>        -0.2331
     16 N3          8.2892   -0.0468   -3.3796 N.2       1 <0>        -0.3152
     17 C14         8.9478   -1.0090   -2.7751 C.2       1 <0>         0.4631
     18 N4         10.2306   -1.4436   -3.0773 N.pl3     1 <0>        -0.8183
     19 N5          5.0982   -2.3783    0.8804 N.ar      1 <0>        -0.4477
     20 C15         3.9494   -1.7206    0.8843 C.ar      1 <0>         0.1768
     21 C16         2.9075   -2.0824    1.8732 C.ar      1 <0>        -0.0051
     22 C17         2.0789   -1.0971    2.4095 C.ar      1 <0>        -0.0819
     23 C18         1.1099   -1.4404    3.3299 C.ar      1 <0>        -0.0999
     24 C19         0.9598   -2.7588    3.7213 C.ar      1 <0>        -0.1539
     25 C20         1.7788   -3.7407    3.1930 C.ar      1 <0>        -0.0959
     26 C21         2.7476   -3.4106    2.2675 C.ar      1 <0>        -0.0765
     27 C22        -0.0997   -3.1268    4.7278 C.3       1 <0>         0.0439
     28 N6         -1.3501   -3.4484    4.0270 N.4       1 <0>        -0.3849
     29 C23        -1.8500   -2.2483    3.3456 C.3       1 <0>        -0.0099
     30 C24        -3.1083   -2.5969    2.5478 C.3       1 <0>        -0.1570
     31 C25        -4.1811   -3.1276    3.5031 C.3       1 <0>         0.1308
     32 C26        -3.6225   -4.3344    4.2626 C.3       1 <0>        -0.1588
     33 C27        -2.3451   -3.9214    4.9969 C.3       1 <0>        -0.0015
     34 N7         -5.3615   -3.5346    2.7368 N.pl3     1 <0>        -0.4675
     35 C28        -6.6220   -3.0248    2.8618 C.2       1 <0>         0.0050
     36 C29        -7.4018   -3.6847    1.9650 C.2       1 <0>         0.0466
     37 N8         -6.6215   -4.5730    1.3156 N.2       1 <0>        -0.4621
     38 C30        -5.4026   -4.4836    1.7678 C.2       1 <0>         0.1852
     39 C31        -8.8508   -3.4670    1.7408 C.ar      1 <0>         0.1963
     40 C32        -9.5244   -4.2265    0.7852 C.ar      1 <0>        -0.1428
     41 C33       -10.8767   -4.0122    0.5877 C.ar      1 <0>        -0.0738
     42 C34       -11.5132   -3.0441    1.3528 C.ar      1 <0>        -0.1693
     43 C35       -10.7845   -2.3274    2.2827 C.ar      1 <0>         0.1041
     44 N9         -9.4976   -2.5546    2.4551 N.ar      1 <0>        -0.4837
     45 H1         -0.9603    1.9042    0.0260 H         1 <0>         0.1263
     46 H2          1.1477    3.1723    0.0081 H         1 <0>         0.1310
     47 H3          3.3021    1.9851   -0.0199 H         1 <0>         0.1300
     48 H4          1.2182   -1.7603   -0.0192 H         1 <0>         0.1202
     49 H5         -0.9264   -0.5557    0.0082 H         1 <0>         0.1216
     50 H6          4.5193    0.4450   -1.6816 H         1 <0>         0.1594
     51 H7          7.5019   -3.6050    0.7356 H         1 <0>         0.1703
     52 H8          9.2213   -3.0477   -0.8404 H         1 <0>         0.1720
     53 H9         10.6304   -2.1661   -2.5683 H         1 <0>         0.4129
     54 H10        10.7275   -1.0250   -3.7975 H         1 <0>         0.4324
     55 H11         2.1956   -0.0674    2.1052 H         1 <0>         0.1438
     56 H12         0.4676   -0.6783    3.7459 H         1 <0>         0.1343
     57 H13         1.6569   -4.7682    3.5024 H         1 <0>         0.1352
     58 H14         3.3833   -4.1786    1.8523 H         1 <0>         0.1422
     59 H15         0.2290   -3.9938    5.3008 H         1 <0>         0.1403
     60 H16        -0.2670   -2.2874    5.4026 H         1 <0>         0.1380
     61 H17        -2.0893   -1.4842    4.0852 H         1 <0>         0.1347
     62 H18        -1.0842   -1.8700    2.6684 H         1 <0>         0.1418
     63 H19        -3.4789   -1.7042    2.0440 H         1 <0>         0.1221
     64 H20        -2.8700   -3.3608    1.8076 H         1 <0>         0.0982
     65 H21        -4.4567   -2.3466    4.2118 H         1 <0>         0.1189
     66 H22        -4.3607   -4.6835    4.9846 H         1 <0>         0.1230
     67 H23        -3.3949   -5.1343    3.5581 H         1 <0>         0.0987
     68 H24        -1.9449   -4.7782    5.5389 H         1 <0>         0.1407
     69 H25        -2.5739   -3.1216    5.7013 H         1 <0>         0.1352
     70 H26        -6.9384   -2.2479    3.5421 H         1 <0>         0.1883
     71 H27        -4.5624   -5.0714    1.4287 H         1 <0>         0.2067
     72 H28        -8.9978   -4.9714    0.2071 H         1 <0>         0.1416
     73 H29       -11.4250   -4.5849   -0.1456 H         1 <0>         0.1391
     74 H30       -12.5681   -2.8528    1.2221 H         1 <0>         0.1390
     75 H31       -11.2768   -1.5735    2.8790 H         1 <0>         0.1609
     76 H32        -1.1760   -4.1718    3.3454 H         1 <0>         0.4238
@<TRIPOS>BOND
     1    1    6 ar
     2    1    2 ar
     3    1   45 1
     4    2    3 ar
     5    2   46 1
     6    3    4 ar
     7    3   47 1
     8    4    5 ar
     9    4    7 1
    10    5    6 ar
    11    5   48 1
    12    6   49 1
    13    7   20 ar
    14    7    8 ar
    15    8    9 ar
    16    8   50 1
    17    9   14 1
    18    9   10 ar
    19   10   11 1
    20   10   19 ar
    21   11   12 2
    22   11   51 1
    23   12   13 1
    24   12   52 1
    25   13   17 1
    26   13   14 1
    27   14   15 2
    28   15   16 1
    29   16   17 2
    30   17   18 1
    31   18   53 1
    32   18   54 1
    33   19   20 ar
    34   20   21 1
    35   21   26 ar
    36   21   22 ar
    37   22   23 ar
    38   22   55 1
    39   23   24 ar
    40   23   56 1
    41   24   25 ar
    42   24   27 1
    43   25   26 ar
    44   25   57 1
    45   26   58 1
    46   27   28 1
    47   27   59 1
    48   27   60 1
    49   28   33 1
    50   28   29 1
    51   28   76 1
    52   29   30 1
    53   29   61 1
    54   29   62 1
    55   30   31 1
    56   30   63 1
    57   30   64 1
    58   31   32 1
    59   31   34 1
    60   31   65 1
    61   32   33 1
    62   32   66 1
    63   32   67 1
    64   33   68 1
    65   33   69 1
    66   34   38 1
    67   34   35 1
    68   35   36 2
    69   35   70 1
    70   36   37 1
    71   36   39 1
    72   37   38 2
    73   38   71 1
    74   39   44 ar
    75   39   40 ar
    76   40   41 ar
    77   40   72 1
    78   41   42 ar
    79   41   73 1
    80   42   43 ar
    81   42   74 1
    82   43   44 ar
    83   43   75 1
@<TRIPOS>MOLECULE
CHEMBL213618
   48    50     0     0     0
SMALL
USER_CHARGES

@<TRIPOS>ATOM
      1 C1         -2.1041    2.2863   -0.7028 C.3       1 <0>         0.1018
      2 N1         -1.8471    0.8596   -0.4913 N.pl3     1 <0>        -0.6965
      3 C2         -2.8758   -0.0565   -0.6270 C.ar      1 <0>         0.5759
      4 N2         -4.0857    0.3753   -0.9540 N.ar      1 <0>        -0.5576
      5 C3         -5.0963   -0.4680   -1.0937 C.ar      1 <0>         0.2078
      6 C4         -4.8825   -1.8201   -0.8943 C.ar      1 <0>        -0.2767
      7 C5         -3.5951   -2.2472   -0.5498 C.ar      1 <0>         0.2821
      8 N3         -2.6246   -1.3408   -0.4321 N.ar      1 <0>        -0.5569
      9 C6         -3.3147   -3.6803   -0.3261 C.2       1 <0>        -0.0714
     10 C7         -2.1203   -4.2890    0.0229 C.2       1 <0>        -0.1288
     11 C8         -2.0949   -5.6467    0.1781 C.2       1 <0>        -0.0483
     12 C9         -3.2668   -6.3618   -0.0201 C.2       1 <0>        -0.2608
     13 S1         -4.4299   -5.0705   -0.4285 S.3       1 <0>         0.1436
     14 C10        -3.4936   -7.8078    0.0846 C.2       1 <0>         0.6083
     15 O1         -2.5746   -8.5478    0.3823 O.2       1 <0>        -0.5100
     16 N4         -4.7197   -8.3163   -0.1490 N.am      1 <0>        -0.7393
     17 C11        -4.9461   -9.7599   -0.0445 C.3       1 <0>         0.1134
     18 H1         -4.1094  -10.2219    0.4795 H         1 <0>         0.1325
     19 C12        -6.2392  -10.0185    0.7314 C.3       1 <0>        -0.0883
     20 C13        -6.0752   -9.5456    2.1529 C.ar      1 <0>        -0.0871
     21 C14        -6.5468   -8.3008    2.5258 C.ar      1 <0>        -0.0849
     22 C15        -6.3968   -7.8664    3.8291 C.ar      1 <0>        -0.1008
     23 C16        -5.7748   -8.6776    4.7618 C.ar      1 <0>        -0.0173
     24 C17        -5.3032   -9.9234    4.3895 C.ar      1 <0>        -0.0977
     25 C18        -5.4579  -10.3596    3.0857 C.ar      1 <0>        -0.0181
     26 Cl1        -4.8717  -11.9255    2.6188 Cl        1 <0>        -0.0517
     27 Cl2        -5.5859   -8.1316    6.3989 Cl        1 <0>        -0.0408
     28 C19        -5.0639  -10.3605   -1.4467 C.3       1 <0>        -0.0207
     29 N5         -3.8726  -10.0097   -2.2313 N.4       1 <0>        -0.6367
     30 H2         -1.1818    2.8477   -0.5532 H         1 <0>         0.0814
     31 H3         -2.4645    2.4438   -1.7193 H         1 <0>         0.0634
     32 H4         -2.8571    2.6290    0.0069 H         1 <0>         0.0635
     33 H5         -0.9560    0.5570   -0.2561 H         1 <0>         0.4178
     34 H6         -6.0777   -0.1042   -1.3601 H         1 <0>         0.1775
     35 H7         -5.6899   -2.5292   -1.0015 H         1 <0>         0.1443
     36 H8         -1.2258   -3.7018    0.1693 H         1 <0>         0.1591
     37 H9         -1.1802   -6.1529    0.4494 H         1 <0>         0.1537
     38 H10        -5.4522   -7.7264   -0.3862 H         1 <0>         0.4120
     39 H11        -7.0598   -9.4771    0.2608 H         1 <0>         0.0995
     40 H12        -6.4584  -11.0863    0.7267 H         1 <0>         0.1095
     41 H13        -7.0323   -7.6673    1.7982 H         1 <0>         0.1408
     42 H14        -6.7648   -6.8935    4.1197 H         1 <0>         0.1450
     43 H15        -4.8176  -10.5568    5.1171 H         1 <0>         0.1492
     44 H16        -5.1434  -11.4450   -1.3720 H         1 <0>         0.1528
     45 H17        -5.9524   -9.9641   -1.9382 H         1 <0>         0.1433
     46 H18        -3.9503  -10.4058   -3.1561 H         1 <0>         0.4414
     47 H19        -3.7991   -9.0058   -2.3005 H         1 <0>         0.4304
     48 H20        -3.0502  -10.3767   -1.7763 H         1 <0>         0.4402
@<TRIPOS>BOND
     1    1    2 1
     2    1   30 1
     3    1   31 1
     4    1   32 1
     5    2    3 1
     6    2   33 1
     7    3    8 ar
     8    3    4 ar
     9    4    5 ar
    10    5    6 ar
    11    5   34 1
    12    6    7 ar
    13    6   35 1
    14    7    8 ar
    15    7    9 1
    16    9   13 1
    17    9   10 2
    18   10   11 1
    19   10   36 1
    20   11   12 2
    21   11   37 1
    22   12   13 1
    23   12   14 1
    24   14   15 2
    25   14   16 am
    26   16   17 1
    27   16   38 1
    28   17   18 1
    29   17   19 1
    30   17   28 1
    31   19   20 1
    32   19   39 1
    33   19   40 1
    34   20   25 ar
    35   20   21 ar
    36   21   22 ar
    37   21   41 1
    38   22   23 ar
    39   22   42 1
    40   23   24 ar
    41   23   27 1
    42   24   25 ar
    43   24   43 1
    44   25   26 1
    45   28   29 1
    46   28   44 1
    47   28   45 1
    48   29   46 1
    49   29   47 1
    50   29   48 1
@<TRIPOS>MOLECULE
CHEMBL261260
   31    33     0     0     0
SMALL
USER_CHARGES

@<TRIPOS>ATOM
      1 C1          0.0402    1.2615    0.6268 C.2       1 <0>         0.2712
      2 N1          1.3012    1.7534    0.4646 N.pl3     1 <0>        -0.5758
      3 H1          1.5659    2.6847    0.5234 H         1 <0>         0.4372
      4 C2          2.1272    0.6895    0.2033 C.ar      1 <0>         0.3045
      5 C3          1.3062   -0.4509    0.2171 C.ar      1 <0>        -0.1049
      6 N2          0.0454   -0.0318    0.4813 N.2       1 <0>        -0.4773
      7 C4          1.9020   -1.7001   -0.0252 C.ar      1 <0>         0.5014
      8 N3          3.2103   -1.7438   -0.2555 N.ar      1 <0>        -0.5864
      9 C5          3.9412   -0.6441   -0.2584 C.ar      1 <0>         0.3677
     10 N4          3.4265    0.5471   -0.0365 N.ar      1 <0>        -0.5493
     11 N5          1.1443   -2.8581   -0.0238 N.pl3     1 <0>        -0.5928
     12 C6         -0.3188   -2.7953    0.0951 C.3       1 <0>         0.1049
     13 C7         -0.9419   -3.5742   -1.0675 C.3       1 <0>        -0.1570
     14 C8         -0.3734   -4.9949   -1.0873 C.3       1 <0>         0.0244
     15 C9          1.1409   -4.9373   -1.3011 C.3       1 <0>        -0.1580
     16 C10         1.7872   -4.1735   -0.1472 C.3       1 <0>         0.1210
     17 N6         -0.9934   -5.7550   -2.1809 N.4       1 <0>        -0.6361
     18 H2         -0.8333    1.8567    0.8481 H         1 <0>         0.2310
     19 H3          5.0010   -0.7249   -0.4501 H         1 <0>         0.2099
     20 H4         -0.6280   -3.2407    1.0407 H         1 <0>         0.0792
     21 H5         -0.6443   -1.7558    0.0547 H         1 <0>         0.1460
     22 H6         -2.0234   -3.6168   -0.9387 H         1 <0>         0.1030
     23 H7         -0.7065   -3.0750   -2.0075 H         1 <0>         0.0905
     24 H8         -0.5877   -5.4850   -0.1376 H         1 <0>         0.1446
     25 H9          1.5419   -5.9502   -1.3384 H         1 <0>         0.1029
     26 H10         1.3567   -4.4253   -2.2388 H         1 <0>         0.0924
     27 H11         2.8506   -4.0431   -0.3474 H         1 <0>         0.1203
     28 H12         1.6535   -4.7338    0.7782 H         1 <0>         0.0789
     29 H13        -0.7957   -5.3012   -3.0601 H         1 <0>         0.4334
     30 H14        -0.6187   -6.6917   -2.1941 H         1 <0>         0.4365
     31 H15        -1.9917   -5.7940   -2.0395 H         1 <0>         0.4366
@<TRIPOS>BOND
     1    1    6 2
     2    1    2 1
     3    1   18 1
     4    2    3 1
     5    2    4 1
     6    4   10 ar
     7    4    5 ar
     8    5    6 1
     9    5    7 ar
    10    7    8 ar
    11    7   11 1
    12    8    9 ar
    13    9   10 ar
    14    9   19 1
    15   11   16 1
    16   11   12 1
    17   12   13 1
    18   12   20 1
    19   12   21 1
    20   13   14 1
    21   13   22 1
    22   13   23 1
    23   14   15 1
    24   14   17 1
    25   14   24 1
    26   15   16 1
    27   15   25 1
    28   15   26 1
    29   16   27 1
    30   16   28 1
    31   17   29 1
    32   17   30 1
    33   17   31 1
@<TRIPOS>MOLECULE
CHEMBL262341
   71    77     0     0     0
SMALL
USER_CHARGES

@<TRIPOS>ATOM
      1 C1         -0.8801   -1.7501    0.2025 C.ar      1 <0>        -0.1086
      2 C2         -0.2662   -0.5685    0.5771 C.ar      1 <0>        -0.1133
      3 C3          1.1093   -0.4611    0.5416 C.ar      1 <0>        -0.1091
      4 C4          1.8798   -1.5457    0.1275 C.ar      1 <0>        -0.0504
      5 C5          1.2561   -2.7336   -0.2488 C.ar      1 <0>        -0.0988
      6 C6         -0.1201   -2.8300   -0.2094 C.ar      1 <0>        -0.1125
      7 C7          3.3590   -1.4360    0.0868 C.2       1 <0>        -0.1303
      8 C8          4.0592   -1.2701    1.2298 C.2       1 <0>        -0.0302
      9 C9          5.5355   -1.0851    1.1733 C.3       1 <0>        -0.1788
     10 C10         6.0889   -1.6628   -0.1011 C.2       1 <0>         0.1709
     11 C11         7.3344   -2.2673   -0.0119 C.2       1 <0>        -0.1995
     12 C12         7.9259   -2.4366    1.2333 C.2       1 <0>         0.2836
     13 N1          7.3756   -2.1056    2.3803 N.2       1 <0>        -0.5754
     14 C13         6.1983   -1.4749    2.4672 C.2       1 <0>         0.5261
     15 O1          5.6879   -1.2276    3.5421 O.2       1 <0>        -0.4314
     16 N2          5.3825   -1.6920   -1.2163 N.2       1 <0>        -0.4781
     17 C14         4.0727   -1.5135   -1.2007 C.2       1 <0>         0.2919
     18 C15         3.3291   -1.3865   -2.4686 C.ar      1 <0>        -0.0276
     19 C16         2.2060   -0.5574   -2.5444 C.ar      1 <0>        -0.0738
     20 C17         1.5164   -0.4434   -3.7329 C.ar      1 <0>        -0.0994
     21 C18         1.9334   -1.1477   -4.8493 C.ar      1 <0>        -0.1401
     22 C19         3.0444   -1.9705   -4.7820 C.ar      1 <0>        -0.0974
     23 C20         3.7476   -2.0902   -3.6020 C.ar      1 <0>        -0.0644
     24 C21         1.1736   -1.0183   -6.1443 C.3       1 <0>         0.0416
     25 N3          1.7353    0.0862   -6.9333 N.4       1 <0>        -0.3838
     26 C22         1.5232    1.3518   -6.2208 C.3       1 <0>        -0.0103
     27 C23         2.1775    2.4955   -6.9990 C.3       1 <0>        -0.1383
     28 C24         1.5499    2.5814   -8.3933 C.3       1 <0>         0.0021
     29 C25         1.7116    1.2320   -9.0992 C.3       1 <0>        -0.1402
     30 C26         1.0746    0.1352   -8.2431 C.3       1 <0>        -0.0031
     31 C27         2.2431    3.6545   -9.1927 C.2       1 <0>         0.2193
     32 N4          1.6584    4.7342   -9.7017 N.2       1 <0>        -0.5191
     33 C28         2.5494    5.4641  -10.3411 C.2       1 <0>         0.3523
     34 N5          3.7443    4.8383  -10.2424 N.pl3     1 <0>        -0.4475
     35 H1          4.5897    5.1357  -10.6137 H         1 <0>         0.4545
     36 N6          3.5170    3.6739   -9.4908 N.2       1 <0>        -0.3003
     37 C29         2.2890    6.7410  -11.0429 C.ar      1 <0>         0.1601
     38 C30         0.9998    7.2719  -11.0574 C.ar      1 <0>        -0.1102
     39 C31         0.7723    8.4671  -11.7175 C.ar      1 <0>        -0.0737
     40 C32         1.8417    9.0929  -12.3421 C.ar      1 <0>        -0.1432
     41 C33         3.0950    8.5100  -12.2882 C.ar      1 <0>         0.1096
     42 N7          3.2859    7.3744  -11.6490 N.ar      1 <0>        -0.4750
     43 H2         -1.9565   -1.8313    0.2360 H         1 <0>         0.1272
     44 H3         -0.8644    0.2716    0.8976 H         1 <0>         0.1292
     45 H4          1.5875    0.4621    0.8340 H         1 <0>         0.1259
     46 H5          1.8486   -3.5772   -0.5709 H         1 <0>         0.1205
     47 H6         -0.6045   -3.7502   -0.5008 H         1 <0>         0.1273
     48 H7          3.5496   -1.2713    2.1820 H         1 <0>         0.1568
     49 H8          5.6836   -0.0092    1.0802 H         1 <0>         0.1566
     50 H9          7.8404   -2.6042   -0.9045 H         1 <0>         0.1606
     51 H10         8.9134   -2.8732    1.2613 H         1 <0>         0.1749
     52 H11         1.8791   -0.0078   -1.6740 H         1 <0>         0.1442
     53 H12         0.6487    0.1967   -3.7930 H         1 <0>         0.1385
     54 H13         3.3638   -2.5169   -5.6571 H         1 <0>         0.1390
     55 H14         4.6169   -2.7291   -3.5522 H         1 <0>         0.1457
     56 H15         1.2568   -1.9471   -6.7087 H         1 <0>         0.1405
     57 H16         0.1241   -0.8154   -5.9310 H         1 <0>         0.1391
     58 H17         0.4538    1.5412   -6.1280 H         1 <0>         0.1337
     59 H18         1.9676    1.2880   -5.2276 H         1 <0>         0.1351
     60 H19         2.0174    3.4345   -6.4693 H         1 <0>         0.1154
     61 H20         3.2470    2.3072   -7.0923 H         1 <0>         0.0962
     62 H21         0.4904    2.8203   -8.3020 H         1 <0>         0.1177
     63 H22         1.2185    1.2680  -10.0706 H         1 <0>         0.1169
     64 H23         2.7715    1.0175   -9.2360 H         1 <0>         0.0969
     65 H24         1.1878   -0.8268   -8.7429 H         1 <0>         0.1364
     66 H25         0.0148    0.3506   -8.1072 H         1 <0>         0.1342
     67 H26         0.1902    6.7578  -10.5608 H         1 <0>         0.1515
     68 H27        -0.2156    8.9026  -11.7462 H         1 <0>         0.1490
     69 H28         1.6969   10.0263  -12.8658 H         1 <0>         0.1483
     70 H29         3.9292    8.9946  -12.7737 H         1 <0>         0.1701
     71 H30         2.7248   -0.0632   -7.0622 H         1 <0>         0.4240
@<TRIPOS>BOND
     1    1    6 ar
     2    1    2 ar
     3    1   43 1
     4    2    3 ar
     5    2   44 1
     6    3    4 ar
     7    3   45 1
     8    4    5 ar
     9    4    7 1
    10    5    6 ar
    11    5   46 1
    12    6   47 1
    13    7   17 1
    14    7    8 2
    15    8    9 1
    16    8   48 1
    17    9   14 1
    18    9   10 1
    19    9   49 1
    20   10   11 2
    21   10   16 1
    22   11   12 1
    23   11   50 1
    24   12   13 2
    25   12   51 1
    26   13   14 1
    27   14   15 2
    28   16   17 2
    29   17   18 1
    30   18   23 ar
    31   18   19 ar
    32   19   20 ar
    33   19   52 1
    34   20   21 ar
    35   20   53 1
    36   21   22 ar
    37   21   24 1
    38   22   23 ar
    39   22   54 1
    40   23   55 1
    41   24   25 1
    42   24   56 1
    43   24   57 1
    44   25   30 1
    45   25   26 1
    46   25   71 1
    47   26   27 1
    48   26   58 1
    49   26   59 1
    50   27   28 1
    51   27   60 1
    52   27   61 1
    53   28   29 1
    54   28   31 1
    55   28   62 1
    56   29   30 1
    57   29   63 1
    58   29   64 1
    59   30   65 1
    60   30   66 1
    61   31   36 2
    62   31   32 1
    63   32   33 2
    64   33   34 1
    65   33   37 1
    66   34   35 1
    67   34   36 1
    68   37   42 ar
    69   37   38 ar
    70   38   39 ar
    71   38   67 1
    72   39   40 ar
    73   39   68 1
    74   40   41 ar
    75   40   69 1
    76   41   42 ar
    77   41   70 1
@<TRIPOS>MOLECULE
CHEMBL262341
   71    77     0     0     0
SMALL
USER_CHARGES

@<TRIPOS>ATOM
      1 C1         -0.8801   -1.7501    0.2025 C.ar      1 <0>        -0.1083
      2 C2         -0.2662   -0.5685    0.5771 C.ar      1 <0>        -0.1130
      3 C3          1.1093   -0.4611    0.5416 C.ar      1 <0>        -0.1091
      4 C4          1.8798   -1.5457    0.1275 C.ar      1 <0>        -0.0508
      5 C5          1.2561   -2.7336   -0.2488 C.ar      1 <0>        -0.0990
      6 C6         -0.1201   -2.8300   -0.2094 C.ar      1 <0>        -0.1126
      7 C7          3.3590   -1.4360    0.0868 C.2       1 <0>        -0.1306
      8 C8          4.0592   -1.2701    1.2298 C.2       1 <0>        -0.0297
      9 C9          5.5355   -1.0851    1.1733 C.3       1 <0>        -0.1787
     10 C10         6.0889   -1.6628   -0.1011 C.2       1 <0>         0.1698
     11 C11         7.3344   -2.2673   -0.0119 C.2       1 <0>        -0.1982
     12 C12         7.9259   -2.4366    1.2333 C.2       1 <0>         0.2831
     13 N1          7.3756   -2.1056    2.3803 N.2       1 <0>        -0.5745
     14 C13         6.1983   -1.4749    2.4672 C.2       1 <0>         0.5259
     15 O1          5.6879   -1.2276    3.5421 O.2       1 <0>        -0.4306
     16 N2          5.3825   -1.6920   -1.2163 N.2       1 <0>        -0.4776
     17 C14         4.0727   -1.5135   -1.2007 C.2       1 <0>         0.2906
     18 C15         3.3291   -1.3865   -2.4686 C.ar      1 <0>        -0.0256
     19 C16         2.2060   -0.5574   -2.5444 C.ar      1 <0>        -0.0735
     20 C17         1.5164   -0.4434   -3.7329 C.ar      1 <0>        -0.0991
     21 C18         1.9334   -1.1477   -4.8493 C.ar      1 <0>        -0.1423
     22 C19         3.0444   -1.9705   -4.7820 C.ar      1 <0>        -0.0976
     23 C20         3.7476   -2.0902   -3.6020 C.ar      1 <0>        -0.0650
     24 C21         1.1736   -1.0183   -6.1443 C.3       1 <0>         0.0419
     25 N3          1.7353    0.0862   -6.9333 N.4       1 <0>        -0.3848
     26 C22         1.5232    1.3518   -6.2208 C.3       1 <0>        -0.0113
     27 C23         2.1775    2.4955   -6.9990 C.3       1 <0>        -0.1386
     28 C24         1.5499    2.5814   -8.3933 C.3       1 <0>        -0.0160
     29 C25         1.7116    1.2320   -9.0992 C.3       1 <0>        -0.1490
     30 C26         1.0746    0.1352   -8.2431 C.3       1 <0>        -0.0020
     31 C27         2.2431    3.6545   -9.1927 C.2       1 <0>         0.2706
     32 N4          1.8478    4.8937   -9.3144 N.2       1 <0>        -0.4884
     33 C28         2.7017    5.5675  -10.0969 C.2       1 <0>         0.2885
     34 N5          3.6567    4.7491  -10.4814 N.2       1 <0>        -0.2777
     35 H1          3.9011    2.6898   -9.9888 H         1 <0>         0.4404
     36 N6          3.3785    3.5020   -9.8986 N.pl3     1 <0>        -0.4754
     37 C29         2.5885    6.9994  -10.4684 C.ar      1 <0>         0.1844
     38 C30         3.5478    7.5758  -11.2983 C.ar      1 <0>        -0.1314
     39 C31         3.4286    8.9125  -11.6365 C.ar      1 <0>        -0.0745
     40 C32         2.3524    9.6299  -11.1330 C.ar      1 <0>        -0.1507
     41 C33         1.4374    8.9943  -10.3146 C.ar      1 <0>         0.1033
     42 N7          1.5717    7.7188  -10.0121 N.ar      1 <0>        -0.4471
     43 H2         -1.9565   -1.8313    0.2360 H         1 <0>         0.1274
     44 H3         -0.8644    0.2716    0.8976 H         1 <0>         0.1295
     45 H4          1.5875    0.4621    0.8340 H         1 <0>         0.1261
     46 H5          1.8486   -3.5772   -0.5709 H         1 <0>         0.1204
     47 H6         -0.6045   -3.7502   -0.5008 H         1 <0>         0.1273
     48 H7          3.5496   -1.2713    2.1820 H         1 <0>         0.1570
     49 H8          5.6836   -0.0092    1.0802 H         1 <0>         0.1567
     50 H9          7.8404   -2.6042   -0.9045 H         1 <0>         0.1606
     51 H10         8.9134   -2.8732    1.2613 H         1 <0>         0.1751
     52 H11         1.8791   -0.0078   -1.6740 H         1 <0>         0.1449
     53 H12         0.6487    0.1967   -3.7930 H         1 <0>         0.1390
     54 H13         3.3638   -2.5169   -5.6571 H         1 <0>         0.1386
     55 H14         4.6169   -2.7291   -3.5522 H         1 <0>         0.1459
     56 H15         1.2568   -1.9471   -6.7087 H         1 <0>         0.1413
     57 H16         0.1241   -0.8154   -5.9310 H         1 <0>         0.1403
     58 H17         0.4538    1.5412   -6.1280 H         1 <0>         0.1373
     59 H18         1.9676    1.2880   -5.2276 H         1 <0>         0.1379
     60 H19         2.0174    3.4345   -6.4693 H         1 <0>         0.1245
     61 H20         3.2470    2.3072   -7.0923 H         1 <0>         0.0900
     62 H21         0.4904    2.8203   -8.3020 H         1 <0>         0.1307
     63 H22         1.2185    1.2680  -10.0706 H         1 <0>         0.1239
     64 H23         2.7715    1.0175   -9.2360 H         1 <0>         0.0884
     65 H24         1.1878   -0.8268   -8.7429 H         1 <0>         0.1394
     66 H25         0.0148    0.3506   -8.1072 H         1 <0>         0.1380
     67 H26         4.3730    6.9879  -11.6720 H         1 <0>         0.1437
     68 H27         4.1569    9.3869  -12.2776 H         1 <0>         0.1457
     69 H28         2.2312   10.6747  -11.3780 H         1 <0>         0.1451
     70 H29         0.5988    9.5496   -9.9211 H         1 <0>         0.1669
     71 H30         2.7248   -0.0632   -7.0622 H         1 <0>         0.4226
@<TRIPOS>BOND
     1    1    6 ar
     2    1    2 ar
     3    1   43 1
     4    2    3 ar
     5    2   44 1
     6    3    4 ar
     7    3   45 1
     8    4    5 ar
     9    4    7 1
    10    5    6 ar
    11    5   46 1
    12    6   47 1
    13    7   17 1
    14    7    8 2
    15    8    9 1
    16    8   48 1
    17    9   14 1
    18    9   10 1
    19    9   49 1
    20   10   11 2
    21   10   16 1
    22   11   12 1
    23   11   50 1
    24   12   13 2
    25   12   51 1
    26   13   14 1
    27   14   15 2
    28   16   17 2
    29   17   18 1
    30   18   23 ar
    31   18   19 ar
    32   19   20 ar
    33   19   52 1
    34   20   21 ar
    35   20   53 1
    36   21   22 ar
    37   21   24 1
    38   22   23 ar
    39   22   54 1
    40   23   55 1
    41   24   25 1
    42   24   56 1
    43   24   57 1
    44   25   30 1
    45   25   26 1
    46   25   71 1
    47   26   27 1
    48   26   58 1
    49   26   59 1
    50   27   28 1
    51   27   60 1
    52   27   61 1
    53   28   29 1
    54   28   62 1
    55   28   31 1
    56   29   30 1
    57   29   63 1
    58   29   64 1
    59   30   65 1
    60   30   66 1
    61   31   32 2
    62   31   36 1
    63   32   33 1
    64   33   37 1
    65   33   34 2
    66   34   36 1
    67   35   36 1
    68   37   42 ar
    69   37   38 ar
    70   38   39 ar
    71   38   67 1
    72   39   40 ar
    73   39   68 1
    74   40   41 ar
    75   40   69 1
    76   41   42 ar
    77   41   70 1
@<TRIPOS>MOLECULE
CHEMBL262341
   71    77     0     0     0
SMALL
USER_CHARGES

@<TRIPOS>ATOM
      1 C1         -0.4198   -1.4700    1.2407 C.ar      1 <0>        -0.1082
      2 C2          0.3187   -0.3067    1.3622 C.ar      1 <0>        -0.1129
      3 C3          1.6561   -0.2965    1.0213 C.ar      1 <0>        -0.1050
      4 C4          2.2622   -1.4610    0.5542 C.ar      1 <0>        -0.0534
      5 C5          1.5135   -2.6301    0.4339 C.ar      1 <0>        -0.0984
      6 C6          0.1768   -2.6288    0.7776 C.ar      1 <0>        -0.1156
      7 C7          3.6996   -1.4561    0.1857 C.2       1 <0>        -0.1294
      8 C8          4.6444   -1.3089    1.1395 C.2       1 <0>        -0.0293
      9 C9          6.0853   -1.3818    0.7716 C.3       1 <0>        -0.1795
     10 C10         6.2725   -1.0564   -0.6855 C.2       1 <0>         0.1709
     11 C11         7.4193   -0.3485   -1.0147 C.2       1 <0>        -0.2002
     12 C12         8.2377    0.1383   -0.0036 C.2       1 <0>         0.2835
     13 N1          7.9940    0.0252    1.2832 N.2       1 <0>        -0.5755
     14 C13         6.9546   -0.6642    1.7689 C.2       1 <0>         0.5261
     15 O1          6.7231   -0.7084    2.9613 O.2       1 <0>        -0.4315
     16 N2          5.3453   -1.3308   -1.5846 N.2       1 <0>        -0.4774
     17 C14         4.1041   -1.6179   -1.2225 C.2       1 <0>         0.2913
     18 C15         3.1293   -2.0917   -2.2235 C.ar      1 <0>        -0.0277
     19 C16         1.8191   -1.6036   -2.2140 C.ar      1 <0>        -0.0714
     20 C17         0.9138   -2.0507   -3.1530 C.ar      1 <0>        -0.0999
     21 C18         1.2992   -2.9807   -4.1031 C.ar      1 <0>        -0.1392
     22 C19         2.5945   -3.4685   -4.1188 C.ar      1 <0>        -0.0974
     23 C20         3.5126   -3.0265   -3.1899 C.ar      1 <0>        -0.0649
     24 C21         0.3033   -3.4649   -5.1253 C.3       1 <0>         0.0416
     25 N3          0.3551   -2.5966   -6.3090 N.4       1 <0>        -0.3838
     26 C22        -0.0800   -1.2439   -5.9412 C.3       1 <0>        -0.0104
     27 C23         0.0491   -0.3158   -7.1509 C.3       1 <0>        -0.1383
     28 C24        -0.8290   -0.8443   -8.2888 C.3       1 <0>         0.0022
     29 C25        -0.4153   -2.2825   -8.6139 C.3       1 <0>        -0.1402
     30 C26        -0.5271   -3.1377   -7.3499 C.3       1 <0>        -0.0031
     31 C27        -0.6467    0.0205   -9.5094 C.2       1 <0>         0.2192
     32 N4         -1.6084    0.7098  -10.1152 N.2       1 <0>        -0.5191
     33 C28        -1.1096    1.3576  -11.1481 C.2       1 <0>         0.3523
     34 N5          0.2124    1.0791  -11.2118 N.pl3     1 <0>        -0.4475
     35 H1          0.8464    1.4113  -11.8665 H         1 <0>         0.4545
     36 N6          0.4843    0.2165  -10.1374 N.2       1 <0>        -0.3001
     37 C29        -1.8620    2.2333  -12.0743 C.ar      1 <0>         0.1602
     38 C30        -3.2285    2.4326  -11.8812 C.ar      1 <0>        -0.1102
     39 C31        -3.9182    3.2547  -12.7555 C.ar      1 <0>        -0.0738
     40 C32        -3.2188    3.8512  -13.7951 C.ar      1 <0>        -0.1433
     41 C33        -1.8632    3.6098  -13.9277 C.ar      1 <0>         0.1096
     42 N7         -1.2294    2.8272  -13.0790 N.ar      1 <0>        -0.4749
     43 H2         -1.4649   -1.4746    1.5128 H         1 <0>         0.1277
     44 H3         -0.1522    0.5954    1.7240 H         1 <0>         0.1299
     45 H4          2.2316    0.6124    1.1162 H         1 <0>         0.1254
     46 H5          1.9782   -3.5353    0.0720 H         1 <0>         0.1215
     47 H6         -0.4044   -3.5343    0.6848 H         1 <0>         0.1271
     48 H7          4.3556   -1.1384    2.1661 H         1 <0>         0.1568
     49 H8          6.3476   -2.4362    0.8587 H         1 <0>         0.1571
     50 H9          7.6742   -0.1775   -2.0502 H         1 <0>         0.1602
     51 H10         9.1434    0.6483   -0.2969 H         1 <0>         0.1746
     52 H11         1.5169   -0.8786   -1.4728 H         1 <0>         0.1450
     53 H12        -0.0986   -1.6746   -3.1469 H         1 <0>         0.1386
     54 H13         2.8879   -4.1939   -4.8632 H         1 <0>         0.1391
     55 H14         4.5241   -3.4046   -3.2061 H         1 <0>         0.1420
     56 H15         0.5468   -4.4874   -5.4138 H         1 <0>         0.1404
     57 H16        -0.6990   -3.4369   -4.6977 H         1 <0>         0.1392
     58 H17        -1.1198   -1.2731   -5.6155 H         1 <0>         0.1337
     59 H18         0.5438   -0.8703   -5.1291 H         1 <0>         0.1354
     60 H19        -0.2761    0.6876   -6.8762 H         1 <0>         0.1155
     61 H20         1.0887   -0.2857   -7.4773 H         1 <0>         0.0964
     62 H21        -1.8744   -0.8266   -7.9809 H         1 <0>         0.1176
     63 H22        -1.0724   -2.6849   -9.3849 H         1 <0>         0.1169
     64 H23         0.6146   -2.2932   -8.9706 H         1 <0>         0.0969
     65 H24        -0.2335   -4.1624   -7.5778 H         1 <0>         0.1363
     66 H25        -1.5574   -3.1266   -6.9942 H         1 <0>         0.1342
     67 H26        -3.7415    1.9520  -11.0614 H         1 <0>         0.1514
     68 H27        -4.9770    3.4277  -12.6316 H         1 <0>         0.1490
     69 H28        -3.7282    4.4977  -14.4943 H         1 <0>         0.1482
     70 H29        -1.3164    4.0724  -14.7360 H         1 <0>         0.1701
     71 H30         1.3014   -2.5603   -6.6571 H         1 <0>         0.4241
@<TRIPOS>BOND
     1    1    6 ar
     2    1    2 ar
     3    1   43 1
     4    2    3 ar
     5    2   44 1
     6    3    4 ar
     7    3   45 1
     8    4    5 ar
     9    4    7 1
    10    5    6 ar
    11    5   46 1
    12    6   47 1
    13    7   17 1
    14    7    8 2
    15    8    9 1
    16    8   48 1
    17    9   14 1
    18    9   10 1
    19    9   49 1
    20   10   11 2
    21   10   16 1
    22   11   12 1
    23   11   50 1
    24   12   13 2
    25   12   51 1
    26   13   14 1
    27   14   15 2
    28   16   17 2
    29   17   18 1
    30   18   23 ar
    31   18   19 ar
    32   19   20 ar
    33   19   52 1
    34   20   21 ar
    35   20   53 1
    36   21   22 ar
    37   21   24 1
    38   22   23 ar
    39   22   54 1
    40   23   55 1
    41   24   25 1
    42   24   56 1
    43   24   57 1
    44   25   30 1
    45   25   26 1
    46   25   71 1
    47   26   27 1
    48   26   58 1
    49   26   59 1
    50   27   28 1
    51   27   60 1
    52   27   61 1
    53   28   29 1
    54   28   31 1
    55   28   62 1
    56   29   30 1
    57   29   63 1
    58   29   64 1
    59   30   65 1
    60   30   66 1
    61   31   36 2
    62   31   32 1
    63   32   33 2
    64   33   34 1
    65   33   37 1
    66   34   35 1
    67   34   36 1
    68   37   42 ar
    69   37   38 ar
    70   38   39 ar
    71   38   67 1
    72   39   40 ar
    73   39   68 1
    74   40   41 ar
    75   40   69 1
    76   41   42 ar
    77   41   70 1
@<TRIPOS>MOLECULE
CHEMBL262341
   71    77     0     0     0
SMALL
USER_CHARGES

@<TRIPOS>ATOM
      1 C1         -0.4198   -1.4700    1.2407 C.ar      1 <0>        -0.1079
      2 C2          0.3187   -0.3067    1.3622 C.ar      1 <0>        -0.1125
      3 C3          1.6561   -0.2965    1.0213 C.ar      1 <0>        -0.1049
      4 C4          2.2622   -1.4610    0.5542 C.ar      1 <0>        -0.0539
      5 C5          1.5135   -2.6301    0.4339 C.ar      1 <0>        -0.0988
      6 C6          0.1768   -2.6288    0.7776 C.ar      1 <0>        -0.1157
      7 C7          3.6996   -1.4561    0.1857 C.2       1 <0>        -0.1296
      8 C8          4.6444   -1.3089    1.1395 C.2       1 <0>        -0.0289
      9 C9          6.0853   -1.3818    0.7716 C.3       1 <0>        -0.1794
     10 C10         6.2725   -1.0564   -0.6855 C.2       1 <0>         0.1697
     11 C11         7.4193   -0.3485   -1.0147 C.2       1 <0>        -0.1988
     12 C12         8.2377    0.1383   -0.0036 C.2       1 <0>         0.2831
     13 N1          7.9940    0.0252    1.2832 N.2       1 <0>        -0.5746
     14 C13         6.9546   -0.6642    1.7689 C.2       1 <0>         0.5259
     15 O1          6.7231   -0.7084    2.9613 O.2       1 <0>        -0.4308
     16 N2          5.3453   -1.3308   -1.5846 N.2       1 <0>        -0.4770
     17 C14         4.1041   -1.6179   -1.2225 C.2       1 <0>         0.2900
     18 C15         3.1293   -2.0917   -2.2235 C.ar      1 <0>        -0.0258
     19 C16         1.8191   -1.6036   -2.2140 C.ar      1 <0>        -0.0710
     20 C17         0.9138   -2.0507   -3.1530 C.ar      1 <0>        -0.0996
     21 C18         1.2992   -2.9807   -4.1031 C.ar      1 <0>        -0.1414
     22 C19         2.5945   -3.4685   -4.1188 C.ar      1 <0>        -0.0976
     23 C20         3.5126   -3.0265   -3.1899 C.ar      1 <0>        -0.0654
     24 C21         0.3033   -3.4649   -5.1253 C.3       1 <0>         0.0419
     25 N3          0.3551   -2.5966   -6.3090 N.4       1 <0>        -0.3848
     26 C22        -0.0800   -1.2439   -5.9412 C.3       1 <0>        -0.0114
     27 C23         0.0491   -0.3158   -7.1509 C.3       1 <0>        -0.1386
     28 C24        -0.8290   -0.8443   -8.2888 C.3       1 <0>        -0.0160
     29 C25        -0.4153   -2.2825   -8.6139 C.3       1 <0>        -0.1490
     30 C26        -0.5271   -3.1377   -7.3499 C.3       1 <0>        -0.0020
     31 C27        -0.6467    0.0205   -9.5094 C.2       1 <0>         0.2706
     32 N4         -1.4043    1.0278   -9.8535 N.2       1 <0>        -0.4884
     33 C28        -0.9509    1.5678  -10.9929 C.2       1 <0>         0.2886
     34 N5          0.1110    0.8977  -11.3838 N.2       1 <0>        -0.2778
     35 H1          1.0385   -0.7685  -10.4317 H         1 <0>         0.4404
     36 N6          0.3275   -0.1087  -10.4285 N.pl3     1 <0>        -0.4753
     37 C29        -1.5482    2.7291  -11.6971 C.ar      1 <0>         0.1845
     38 C30        -0.9765    3.1871  -12.8824 C.ar      1 <0>        -0.1314
     39 C31        -1.5452    4.2711  -13.5282 C.ar      1 <0>        -0.0745
     40 C32        -2.6684    4.8622  -12.9668 C.ar      1 <0>        -0.1507
     41 C33        -3.1833    4.3558  -11.7880 C.ar      1 <0>         0.1034
     42 N7         -2.6253    3.3192  -11.1961 N.ar      1 <0>        -0.4471
     43 H2         -1.4649   -1.4746    1.5128 H         1 <0>         0.1279
     44 H3         -0.1522    0.5954    1.7240 H         1 <0>         0.1302
     45 H4          2.2316    0.6124    1.1162 H         1 <0>         0.1256
     46 H5          1.9782   -3.5353    0.0720 H         1 <0>         0.1212
     47 H6         -0.4044   -3.5343    0.6848 H         1 <0>         0.1271
     48 H7          4.3556   -1.1384    2.1661 H         1 <0>         0.1569
     49 H8          6.3476   -2.4362    0.8587 H         1 <0>         0.1571
     50 H9          7.6742   -0.1775   -2.0502 H         1 <0>         0.1602
     51 H10         9.1434    0.6483   -0.2969 H         1 <0>         0.1748
     52 H11         1.5169   -0.8786   -1.4728 H         1 <0>         0.1457
     53 H12        -0.0986   -1.6746   -3.1469 H         1 <0>         0.1391
     54 H13         2.8879   -4.1939   -4.8632 H         1 <0>         0.1387
     55 H14         4.5241   -3.4046   -3.2061 H         1 <0>         0.1421
     56 H15         0.5468   -4.4874   -5.4138 H         1 <0>         0.1411
     57 H16        -0.6990   -3.4369   -4.6977 H         1 <0>         0.1404
     58 H17        -1.1198   -1.2731   -5.6155 H         1 <0>         0.1372
     59 H18         0.5438   -0.8703   -5.1291 H         1 <0>         0.1382
     60 H19        -0.2761    0.6876   -6.8762 H         1 <0>         0.1247
     61 H20         1.0887   -0.2857   -7.4773 H         1 <0>         0.0902
     62 H21        -1.8744   -0.8266   -7.9809 H         1 <0>         0.1307
     63 H22        -1.0724   -2.6849   -9.3849 H         1 <0>         0.1239
     64 H23         0.6146   -2.2932   -8.9706 H         1 <0>         0.0885
     65 H24        -0.2335   -4.1624   -7.5778 H         1 <0>         0.1393
     66 H25        -1.5574   -3.1266   -6.9942 H         1 <0>         0.1380
     67 H26        -0.1018    2.7033  -13.2911 H         1 <0>         0.1437
     68 H27        -1.1241    4.6487  -14.4482 H         1 <0>         0.1456
     69 H28        -3.1354    5.7099  -13.4460 H         1 <0>         0.1451
     70 H29        -4.0573    4.8135  -11.3484 H         1 <0>         0.1668
     71 H30         1.3014   -2.5603   -6.6571 H         1 <0>         0.4227
@<TRIPOS>BOND
     1    1    6 ar
     2    1    2 ar
     3    1   43 1
     4    2    3 ar
     5    2   44 1
     6    3    4 ar
     7    3   45 1
     8    4    5 ar
     9    4    7 1
    10    5    6 ar
    11    5   46 1
    12    6   47 1
    13    7   17 1
    14    7    8 2
    15    8    9 1
    16    8   48 1
    17    9   14 1
    18    9   10 1
    19    9   49 1
    20   10   11 2
    21   10   16 1
    22   11   12 1
    23   11   50 1
    24   12   13 2
    25   12   51 1
    26   13   14 1
    27   14   15 2
    28   16   17 2
    29   17   18 1
    30   18   23 ar
    31   18   19 ar
    32   19   20 ar
    33   19   52 1
    34   20   21 ar
    35   20   53 1
    36   21   22 ar
    37   21   24 1
    38   22   23 ar
    39   22   54 1
    40   23   55 1
    41   24   25 1
    42   24   56 1
    43   24   57 1
    44   25   30 1
    45   25   26 1
    46   25   71 1
    47   26   27 1
    48   26   58 1
    49   26   59 1
    50   27   28 1
    51   27   60 1
    52   27   61 1
    53   28   29 1
    54   28   62 1
    55   28   31 1
    56   29   30 1
    57   29   63 1
    58   29   64 1
    59   30   65 1
    60   30   66 1
    61   31   32 2
    62   31   36 1
    63   32   33 1
    64   33   37 1
    65   33   34 2
    66   34   36 1
    67   35   36 1
    68   37   42 ar
    69   37   38 ar
    70   38   39 ar
    71   38   67 1
    72   39   40 ar
    73   39   68 1
    74   40   41 ar
    75   40   69 1
    76   41   42 ar
    77   41   70 1
@<TRIPOS>MOLECULE
CHEMBL223339
   38    40     0     0     0
SMALL
USER_CHARGES

@<TRIPOS>ATOM
      1 C1          1.0934   -0.5651    0.0277 C.ar      1 <0>        -0.1146
      2 C2          2.3054    0.0943   -0.0095 C.ar      1 <0>        -0.1071
      3 C3          2.3444    1.4767    0.0182 C.ar      1 <0>        -0.1461
      4 C4          1.1707    2.2055    0.0833 C.ar      1 <0>        -0.0944
      5 C5         -0.0467    1.5560    0.1205 C.ar      1 <0>        -0.1205
      6 C6         -0.0917    0.1640    0.0928 C.ar      1 <0>         0.0397
      7 C7         -1.3984   -0.5400    0.1326 C.2       1 <0>        -0.2277
      8 C8         -2.6288    0.0466    0.1911 C.2       1 <0>         0.0910
      9 N1         -3.5496   -0.9381    0.2104 N.pl3     1 <0>        -0.4645
     10 H1         -4.5111   -0.8168    0.2503 H         1 <0>         0.4477
     11 N2         -2.8783   -2.1659    0.1629 N.2       1 <0>        -0.2819
     12 C9         -1.5933   -1.9348    0.1107 C.2       1 <0>         0.0710
     13 C10         3.6706    2.1913   -0.0222 C.3       1 <0>        -0.0153
     14 H2          3.5028    3.2628   -0.1303 H         1 <0>         0.1103
     15 C11         4.4890    1.6809   -1.2099 C.3       1 <0>        -0.0047
     16 N3          3.8133    2.0445   -2.4625 N.4       1 <0>        -0.6362
     17 C12         4.4228    1.9270    1.2567 C.ar      1 <0>        -0.0910
     18 C13         4.9016    0.6588    1.5272 C.ar      1 <0>        -0.1023
     19 C14         5.5915    0.4158    2.7000 C.ar      1 <0>        -0.1040
     20 C15         5.8028    1.4422    3.6033 C.ar      1 <0>        -0.0242
     21 C16         5.3233    2.7113    3.3320 C.ar      1 <0>        -0.1035
     22 C17         4.6385    2.9543    2.1563 C.ar      1 <0>        -0.0906
     23 Cl1         6.6687    1.1377    5.0768 Cl        1 <0>        -0.0508
     24 H3          1.0638   -1.6444    0.0019 H         1 <0>         0.1309
     25 H4          3.2248   -0.4700   -0.0600 H         1 <0>         0.1253
     26 H5          1.2068    3.2847    0.1054 H         1 <0>         0.1278
     27 H6         -0.9626    2.1260    0.1717 H         1 <0>         0.1282
     28 H7         -2.8289    1.1076    0.2172 H         1 <0>         0.1827
     29 H8         -0.8159   -2.6829    0.0621 H         1 <0>         0.1879
     30 H9          5.4812    2.1317   -1.1881 H         1 <0>         0.1428
     31 H10         4.5813    0.5965   -1.1484 H         1 <0>         0.1362
     32 H11         4.3530    1.7079   -3.2458 H         1 <0>         0.4396
     33 H12         2.8949    1.6271   -2.4827 H         1 <0>         0.4358
     34 H13         4.7363   -0.1425    0.8222 H         1 <0>         0.1310
     35 H14         5.9653   -0.5752    2.9114 H         1 <0>         0.1399
     36 H15         5.4876    3.5129    4.0369 H         1 <0>         0.1408
     37 H16         4.2682    3.9461    1.9422 H         1 <0>         0.1353
     38 H17         3.7279    3.0483   -2.5195 H         1 <0>         0.4354
@<TRIPOS>BOND
     1    1    6 ar
     2    1    2 ar
     3    1   24 1
     4    2    3 ar
     5    2   25 1
     6    3    4 ar
     7    3   13 1
     8    4    5 ar
     9    4   26 1
    10    5    6 ar
    11    5   27 1
    12    6    7 1
    13    7   12 1
    14    7    8 2
    15    8    9 1
    16    8   28 1
    17    9   10 1
    18    9   11 1
    19   11   12 2
    20   12   29 1
    21   13   14 1
    22   13   15 1
    23   13   17 1
    24   15   16 1
    25   15   30 1
    26   15   31 1
    27   16   32 1
    28   16   33 1
    29   16   38 1
    30   17   22 ar
    31   17   18 ar
    32   18   19 ar
    33   18   34 1
    34   19   20 ar
    35   19   35 1
    36   20   21 ar
    37   20   23 1
    38   21   22 ar
    39   21   36 1
    40   22   37 1
@<TRIPOS>MOLECULE
CHEMBL596991
   46    49     0     0     0
SMALL
USER_CHARGES

@<TRIPOS>ATOM
      1 C1         -0.0167    1.3782    0.0096 C.ar      1 <0>        -0.0940
      2 C2          1.1706    2.0858    0.0021 C.ar      1 <0>        -0.0973
      3 C3          2.3780    1.4104   -0.0130 C.ar      1 <0>        -0.0251
      4 C4          2.3961    0.0270   -0.0206 C.ar      1 <0>        -0.0994
      5 C5          1.2082   -0.6795   -0.0130 C.ar      1 <0>        -0.1291
      6 C6          0.0021   -0.0041    0.0020 C.ar      1 <0>        -0.1211
      7 C7         -1.2928   -0.7750    0.0107 C.3       1 <0>        -0.0981
      8 C8         -1.7453   -1.0281   -1.4288 C.3       1 <0>         0.0695
      9 C9         -1.9515    0.3105   -2.1413 C.3       1 <0>        -0.1558
     10 C10        -2.9982    1.1324   -1.3825 C.3       1 <0>         0.1471
     11 N1         -4.2202    0.3286   -1.2429 N.pl3     1 <0>        -0.6678
     12 C11        -4.1196   -1.0132   -0.6527 C.3       1 <0>         0.1472
     13 C12        -3.0603   -1.8110   -1.4197 C.3       1 <0>        -0.1508
     14 C13        -5.4483    0.8283   -1.6607 C.ar      1 <0>         0.2447
     15 C14        -5.9044    0.6187   -2.9584 C.ar      1 <0>        -0.2074
     16 C15        -7.1318    1.1322   -3.3357 C.ar      1 <0>         0.1458
     17 N2         -7.8824    1.8166   -2.4970 N.ar      1 <0>        -0.4950
     18 C16        -7.5019    2.0498   -1.2457 C.ar      1 <0>         0.2938
     19 C17        -6.2699    1.5553   -0.7851 C.ar      1 <0>        -0.1574
     20 C18        -6.1572    1.9717    0.6134 C.2       1 <0>        -0.1949
     21 C19        -7.2743    2.6553    0.9071 C.2       1 <0>         0.0711
     22 N3         -8.0842    2.7188   -0.1965 N.pl3     1 <0>        -0.5809
     23 H1         -8.9469    3.1610   -0.2287 H         1 <0>         0.4245
     24 N4         -0.7180   -1.8051   -2.1352 N.4       1 <0>        -0.6368
     25 Cl1         3.8696    2.2984   -0.0231 Cl        1 <0>        -0.0442
     26 H2         -0.9592    1.9053    0.0259 H         1 <0>         0.1406
     27 H3          1.1558    3.1656    0.0076 H         1 <0>         0.1437
     28 H4          3.3383   -0.5007   -0.0327 H         1 <0>         0.1428
     29 H5          1.2222   -1.7594   -0.0193 H         1 <0>         0.1322
     30 H6         -1.1447   -1.7283    0.5180 H         1 <0>         0.1021
     31 H7         -2.0551   -0.1989    0.5352 H         1 <0>         0.1259
     32 H8         -1.0090    0.8574   -2.1680 H         1 <0>         0.0970
     33 H9         -2.2976    0.1313   -3.1592 H         1 <0>         0.0938
     34 H10        -2.6152    1.3896   -0.3950 H         1 <0>         0.0672
     35 H11        -3.2213    2.0429   -1.9387 H         1 <0>         0.0913
     36 H12        -3.8280   -0.9309    0.3943 H         1 <0>         0.0683
     37 H13        -5.0825   -1.5183   -0.7274 H         1 <0>         0.0921
     38 H14        -3.3960   -1.9702   -2.4444 H         1 <0>         0.0947
     39 H15        -2.9069   -2.7740   -0.9328 H         1 <0>         0.0972
     40 H16        -5.3060    0.0612   -3.6638 H         1 <0>         0.1332
     41 H17        -7.4838    0.9682   -4.3435 H         1 <0>         0.1636
     42 H18        -5.3333    1.7675    1.2812 H         1 <0>         0.1468
     43 H19        -7.4972    3.0975    1.8669 H         1 <0>         0.1809
     44 H20        -0.5814   -2.6875   -1.6654 H         1 <0>         0.4326
     45 H21        -1.0163   -1.9721   -3.0846 H         1 <0>         0.4345
     46 H22         0.1491   -1.2893   -2.1409 H         1 <0>         0.4312
@<TRIPOS>BOND
     1    1    6 ar
     2    1    2 ar
     3    1   26 1
     4    2    3 ar
     5    2   27 1
     6    3    4 ar
     7    3   25 1
     8    4    5 ar
     9    4   28 1
    10    5    6 ar
    11    5   29 1
    12    6    7 1
    13    7    8 1
    14    7   30 1
    15    7   31 1
    16    8   13 1
    17    8    9 1
    18    8   24 1
    19    9   10 1
    20    9   32 1
    21    9   33 1
    22   10   11 1
    23   10   34 1
    24   10   35 1
    25   11   12 1
    26   11   14 1
    27   12   13 1
    28   12   36 1
    29   12   37 1
    30   13   38 1
    31   13   39 1
    32   14   19 ar
    33   14   15 ar
    34   15   16 ar
    35   15   40 1
    36   16   17 ar
    37   16   41 1
    38   17   18 ar
    39   18   22 1
    40   18   19 ar
    41   19   20 1
    42   20   21 2
    43   20   42 1
    44   21   22 1
    45   21   43 1
    46   22   23 1
    47   24   44 1
    48   24   45 1
    49   24   46 1
@<TRIPOS>MOLECULE
CHEMBL605326
   55    59     0     0     0
SMALL
USER_CHARGES

@<TRIPOS>ATOM
      1 C1          2.8665   -0.5827   -2.8862 C.ar      1 <0>        -0.1192
      2 C2          2.7235    0.6146   -2.2103 C.ar      1 <0>        -0.1165
      3 C3          3.3054    0.7804   -0.9674 C.ar      1 <0>        -0.1042
      4 C4          4.0300   -0.2512   -0.4003 C.ar      1 <0>        -0.0856
      5 C5          4.1723   -1.4488   -1.0758 C.ar      1 <0>        -0.1055
      6 C6          3.5915   -1.6142   -2.3193 C.ar      1 <0>        -0.1192
      7 C7          4.6653   -0.0701    0.9542 C.3       1 <0>         0.1770
      8 C8          6.1769    0.1961    0.7936 C.3       1 <0>        -0.1240
      9 C9          6.7960   -0.5894    1.9799 C.3       1 <0>        -0.1323
     10 C10         5.8633   -1.8239    2.0560 C.3       1 <0>         0.0842
     11 N1          4.5204   -1.3021    1.7432 N.am      1 <0>        -0.6143
     12 C11         3.3532   -1.8617    2.1188 C.2       1 <0>         0.5051
     13 O1          2.3054   -1.3047    1.8684 O.2       1 <0>        -0.5119
     14 C12         3.3501   -3.1795    2.8498 C.3       1 <0>         0.1201
     15 C13         1.9629   -3.8174    2.7450 C.3       1 <0>        -0.1035
     16 C14         0.9213   -2.8659    3.3421 C.3       1 <0>         0.1313
     17 N2          1.3254   -2.5219    4.7122 N.pl3     1 <0>        -0.6548
     18 C15         2.6745   -1.9853    4.9371 C.3       1 <0>         0.1546
     19 C16         3.6965   -2.9466    4.3222 C.3       1 <0>        -0.1255
     20 C17         0.4522   -2.6996    5.7701 C.ar      1 <0>         0.4835
     21 C18        -0.3484   -1.6415    6.2275 C.ar      1 <0>        -0.2094
     22 C19        -0.5324   -0.2424    5.8468 C.2       1 <0>        -0.1619
     23 C20        -1.4587    0.2669    6.6752 C.2       1 <0>         0.0513
     24 N3         -1.8782   -0.6991    7.5530 N.pl3     1 <0>        -0.5739
     25 H1         -2.5438   -0.5693    8.2466 H         1 <0>         0.4227
     26 C21        -1.2210   -1.8730    7.3066 C.ar      1 <0>         0.3192
     27 N4         -1.2515   -3.0885    7.8513 N.ar      1 <0>        -0.5385
     28 C22        -0.4825   -4.0508    7.3903 C.ar      1 <0>         0.3264
     29 N5          0.3460   -3.8785    6.3757 N.ar      1 <0>        -0.5511
     30 N6          4.3470   -4.0752    2.2483 N.3       1 <0>        -0.8345
     31 H2          2.4081   -0.7139   -3.8553 H         1 <0>         0.1212
     32 H3          2.1574    1.4205   -2.6534 H         1 <0>         0.1222
     33 H4          3.1943    1.7161   -0.4396 H         1 <0>         0.1200
     34 H5          4.7387   -2.2547   -0.6329 H         1 <0>         0.1121
     35 H6          3.7030   -2.5497   -2.8473 H         1 <0>         0.1205
     36 H7          4.1934    0.7622    1.4765 H         1 <0>         0.0841
     37 H8          6.5382   -0.1942   -0.1578 H         1 <0>         0.0811
     38 H9          6.3925    1.2609    0.8818 H         1 <0>         0.0867
     39 H10         7.8209   -0.8871    1.7588 H         1 <0>         0.0892
     40 H11         6.7497   -0.0074    2.9004 H         1 <0>         0.0805
     41 H12         6.1612   -2.5704    1.3198 H         1 <0>         0.0716
     42 H13         5.8803   -2.2509    3.0588 H         1 <0>         0.0841
     43 H14         1.7267   -4.0045    1.6975 H         1 <0>         0.0698
     44 H15         1.9530   -4.7588    3.2944 H         1 <0>         0.0829
     45 H16         0.8661   -1.9597    2.7390 H         1 <0>         0.1054
     46 H17        -0.0525   -3.3551    3.3603 H         1 <0>         0.0616
     47 H18         2.7622   -1.0072    4.4641 H         1 <0>         0.0565
     48 H19         2.8574   -1.8934    6.0077 H         1 <0>         0.0717
     49 H20         3.6702   -3.8962    4.8567 H         1 <0>         0.0921
     50 H21         4.6941   -2.5139    4.3972 H         1 <0>         0.0714
     51 H22        -0.0214    0.2813    5.0524 H         1 <0>         0.1531
     52 H23        -1.8188    1.2849    6.6536 H         1 <0>         0.1826
     53 H24        -0.5340   -5.0232    7.8572 H         1 <0>         0.1992
     54 H25         4.2228   -4.1353    1.2488 H         1 <0>         0.3453
     55 H26         5.2840   -3.7804    2.4791 H         1 <0>         0.3454
@<TRIPOS>BOND
     1    1    6 ar
     2    1    2 ar
     3    1   31 1
     4    2    3 ar
     5    2   32 1
     6    3    4 ar
     7    3   33 1
     8    4    5 ar
     9    4    7 1
    10    5    6 ar
    11    5   34 1
    12    6   35 1
    13    7   11 1
    14    7    8 1
    15    7   36 1
    16    8    9 1
    17    8   37 1
    18    8   38 1
    19    9   10 1
    20    9   39 1
    21    9   40 1
    22   10   11 1
    23   10   41 1
    24   10   42 1
    25   11   12 am
    26   12   13 2
    27   12   14 1
    28   14   19 1
    29   14   15 1
    30   14   30 1
    31   15   16 1
    32   15   43 1
    33   15   44 1
    34   16   17 1
    35   16   45 1
    36   16   46 1
    37   17   18 1
    38   17   20 1
    39   18   19 1
    40   18   47 1
    41   18   48 1
    42   19   49 1
    43   19   50 1
    44   20   29 ar
    45   20   21 ar
    46   21   26 ar
    47   21   22 1
    48   22   23 2
    49   22   51 1
    50   23   24 1
    51   23   52 1
    52   24   25 1
    53   24   26 1
    54   26   27 ar
    55   27   28 ar
    56   28   29 ar
    57   28   53 1
    58   30   54 1
    59   30   55 1
@<TRIPOS>MOLECULE
CHEMBL605326
   56    60     0     0     0
SMALL
USER_CHARGES

@<TRIPOS>ATOM
      1 C1          2.8345   -0.5905   -2.8960 C.ar      1 <0>        -0.1104
      2 C2          2.6807    0.6058   -2.2207 C.ar      1 <0>        -0.1079
      3 C3          3.2626    0.7782   -0.9787 C.ar      1 <0>        -0.0984
      4 C4          3.9979   -0.2459   -0.4118 C.ar      1 <0>        -0.0977
      5 C5          4.1509   -1.4426   -1.0867 C.ar      1 <0>        -0.1166
      6 C6          3.5702   -1.6145   -2.3293 C.ar      1 <0>        -0.1180
      7 C7          4.6331   -0.0576    0.9418 C.3       1 <0>         0.1818
      8 C8          6.1418    0.2231    0.7791 C.3       1 <0>        -0.1266
      9 C9          6.7700   -0.5555    1.9651 C.3       1 <0>        -0.1257
     10 C10         5.8495   -1.7989    2.0433 C.3       1 <0>         0.0564
     11 N1          4.5012   -1.2905    1.7319 N.am      1 <0>        -0.6131
     12 C11         3.3399   -1.8611    2.1093 C.2       1 <0>         0.5205
     13 O1          2.2863   -1.3163    1.8564 O.2       1 <0>        -0.4543
     14 C12         3.3508   -3.1759    2.8456 C.3       1 <0>         0.0516
     15 C13         1.9668   -3.8227    2.7544 C.3       1 <0>        -0.1375
     16 C14         0.9241   -2.8753    3.3560 C.3       1 <0>         0.1347
     17 N2          1.3369   -2.5232    4.7214 N.pl3     1 <0>        -0.6526
     18 C15         2.6844   -1.9774    4.9334 C.3       1 <0>         0.1552
     19 C16         3.7074   -2.9349    4.3142 C.3       1 <0>        -0.1536
     20 C17         0.4732   -2.7019    5.7869 C.ar      1 <0>         0.4641
     21 C18        -0.3304   -1.6471    6.2463 C.ar      1 <0>        -0.2040
     22 C19        -0.5261   -0.2507    5.8614 C.2       1 <0>        -0.1725
     23 C20        -1.4491    0.2562    6.6951 C.2       1 <0>         0.0665
     24 N3         -1.8555   -0.7088    7.5800 N.pl3     1 <0>        -0.5703
     25 H1         -2.5164   -0.5802    8.2784 H         1 <0>         0.4275
     26 C21        -1.1929   -1.8796    7.3332 C.ar      1 <0>         0.3224
     27 N4         -1.2114   -3.0929    7.8832 N.ar      1 <0>        -0.5261
     28 C22        -0.4400   -4.0522    7.4200 C.ar      1 <0>         0.3270
     29 N5          0.3793   -3.8790    6.3982 N.ar      1 <0>        -0.5517
     30 N6          4.3485   -4.0678    2.2397 N.4       1 <0>        -0.6404
     31 H2          2.3761   -0.7268   -3.8644 H         1 <0>         0.1268
     32 H3          2.1062    1.4060   -2.6637 H         1 <0>         0.1286
     33 H4          3.1430    1.7132   -0.4515 H         1 <0>         0.1250
     34 H5          4.7257   -2.2426   -0.6439 H         1 <0>         0.1039
     35 H6          3.6901   -2.5493   -2.8567 H         1 <0>         0.1231
     36 H7          4.1538    0.7704    1.4640 H         1 <0>         0.0969
     37 H8          6.5057   -0.1644   -0.1725 H         1 <0>         0.0881
     38 H9          6.3472    1.2900    0.8661 H         1 <0>         0.0984
     39 H10         7.7975   -0.8434    1.7429 H         1 <0>         0.0998
     40 H11         6.7193    0.0267    2.8852 H         1 <0>         0.0907
     41 H12         6.1537   -2.5430    1.3072 H         1 <0>         0.0783
     42 H13         5.8719   -2.2250    3.0463 H         1 <0>         0.0843
     43 H14         1.7234   -4.0155    1.7096 H         1 <0>         0.0996
     44 H15         1.9670   -4.7619    3.3076 H         1 <0>         0.1038
     45 H16         0.8585   -1.9718    2.7497 H         1 <0>         0.1139
     46 H17        -0.0465   -3.3704    3.3839 H         1 <0>         0.0855
     47 H18         2.7623   -1.0007    4.4558 H         1 <0>         0.0701
     48 H19         2.8752   -1.8800    6.0022 H         1 <0>         0.0937
     49 H20         3.6912   -3.8825    4.8527 H         1 <0>         0.1116
     50 H21         4.7029   -2.4957    4.3796 H         1 <0>         0.0982
     51 H22        -0.0248    0.2729    5.0608 H         1 <0>         0.1538
     52 H23        -1.8157    1.2718    6.6721 H         1 <0>         0.1868
     53 H24        -0.4817   -5.0231    7.8913 H         1 <0>         0.2027
     54 H25         5.2745   -3.7149    2.4294 H         1 <0>         0.4287
     55 H26         4.2544   -4.9930    2.6314 H         1 <0>         0.4413
     56 H27         4.2018   -4.1083    1.2423 H         1 <0>         0.4362
@<TRIPOS>BOND
     1    1    6 ar
     2    1    2 ar
     3    1   31 1
     4    2    3 ar
     5    2   32 1
     6    3    4 ar
     7    3   33 1
     8    4    5 ar
     9    4    7 1
    10    5    6 ar
    11    5   34 1
    12    6   35 1
    13    7   11 1
    14    7    8 1
    15    7   36 1
    16    8    9 1
    17    8   37 1
    18    8   38 1
    19    9   10 1
    20    9   39 1
    21    9   40 1
    22   10   11 1
    23   10   41 1
    24   10   42 1
    25   11   12 am
    26   12   13 2
    27   12   14 1
    28   14   19 1
    29   14   15 1
    30   14   30 1
    31   15   16 1
    32   15   43 1
    33   15   44 1
    34   16   17 1
    35   16   45 1
    36   16   46 1
    37   17   18 1
    38   17   20 1
    39   18   19 1
    40   18   47 1
    41   18   48 1
    42   19   49 1
    43   19   50 1
    44   20   29 ar
    45   20   21 ar
    46   21   26 ar
    47   21   22 1
    48   22   23 2
    49   22   51 1
    50   23   24 1
    51   23   52 1
    52   24   25 1
    53   24   26 1
    54   26   27 ar
    55   27   28 ar
    56   28   29 ar
    57   28   53 1
    58   30   54 1
    59   30   55 1
    60   30   56 1
@<TRIPOS>MOLECULE
CHEMBL605326
   55    59     0     0     0
SMALL
USER_CHARGES

@<TRIPOS>ATOM
      1 C1         -1.3202    0.6140   -0.9788 C.ar      1 <0>        -0.1196
      2 C2         -0.3850    1.6289   -1.0576 C.ar      1 <0>        -0.1166
      3 C3          0.9575    1.3463   -0.8881 C.ar      1 <0>        -0.1049
      4 C4          1.3647    0.0489   -0.6394 C.ar      1 <0>        -0.0830
      5 C5          0.4294   -0.9658   -0.5597 C.ar      1 <0>        -0.1038
      6 C6         -0.9129   -0.6835   -0.7306 C.ar      1 <0>        -0.1193
      7 C7          2.8284   -0.2593   -0.4556 C.3       1 <0>         0.1771
      8 C8          3.1433   -0.4352    1.0449 C.3       1 <0>        -0.1241
      9 C9          4.1662   -1.6019    1.0508 C.3       1 <0>        -0.1322
     10 C10         3.6390   -2.4836   -0.1086 C.3       1 <0>         0.0831
     11 N1          3.1601   -1.5267   -1.1228 N.am      1 <0>        -0.6137
     12 C11         3.0450   -1.7731   -2.4428 C.2       1 <0>         0.5035
     13 O1          2.5672   -0.9343   -3.1769 O.2       1 <0>        -0.5115
     14 C12         3.5100   -3.0910   -3.0066 C.3       1 <0>         0.1201
     15 C13         5.0399   -3.1312   -3.0138 C.3       1 <0>        -0.1253
     16 C14         5.5734   -1.9660   -3.8532 C.3       1 <0>         0.1547
     17 N2          4.9619   -2.0258   -5.1878 N.pl3     1 <0>        -0.6565
     18 C15         3.4975   -2.0829   -5.2921 C.3       1 <0>         0.1337
     19 C16         2.9873   -3.2468   -4.4365 C.3       1 <0>        -0.1040
     20 C17         5.7500   -2.0278   -6.3246 C.ar      1 <0>         0.4830
     21 C18         6.1319   -0.8244   -6.9374 C.ar      1 <0>        -0.2087
     22 C19         5.8973    0.5935   -6.6710 C.2       1 <0>        -0.1622
     23 C20         6.5387    1.2802   -7.6305 C.2       1 <0>         0.0519
     24 N3          7.1629    0.4098   -8.4862 N.pl3     1 <0>        -0.5738
     25 H1          7.6897    0.6702   -9.2580 H         1 <0>         0.4228
     26 C21         6.9345   -0.8797   -8.0916 C.ar      1 <0>         0.3191
     27 N4          7.2992   -2.0737   -8.5568 N.ar      1 <0>        -0.5379
     28 C22         6.9172   -3.1764   -7.9502 C.ar      1 <0>         0.3260
     29 N5          6.1693   -3.1699   -6.8612 N.ar      1 <0>        -0.5504
     30 N6          2.9959   -4.1877   -2.1754 N.3       1 <0>        -0.8345
     31 H2         -2.3695    0.8354   -1.1068 H         1 <0>         0.1207
     32 H3         -0.7031    2.6425   -1.2519 H         1 <0>         0.1218
     33 H4          1.6883    2.1391   -0.9503 H         1 <0>         0.1194
     34 H5          0.7476   -1.9795   -0.3658 H         1 <0>         0.1114
     35 H6         -1.6437   -1.4764   -0.6688 H         1 <0>         0.1197
     36 H7          3.4320    0.5475   -0.8713 H         1 <0>         0.0835
     37 H8          3.5897    0.4711    1.4541 H         1 <0>         0.0868
     38 H9          2.2446   -0.7075    1.5982 H         1 <0>         0.0811
     39 H10         5.1726   -1.2402    0.8402 H         1 <0>         0.0807
     40 H11         4.1370   -2.1422    1.9970 H         1 <0>         0.0892
     41 H12         4.4435   -3.0964   -0.5153 H         1 <0>         0.0859
     42 H13         2.8187   -3.1131    0.2362 H         1 <0>         0.0716
     43 H14         5.4109   -3.0437   -1.9926 H         1 <0>         0.0720
     44 H15         5.3771   -4.0741   -3.4444 H         1 <0>         0.0921
     45 H16         5.3139   -1.0218   -3.3744 H         1 <0>         0.0550
     46 H17         6.6566   -2.0467   -3.9436 H         1 <0>         0.0721
     47 H18         3.0687   -1.1483   -4.9306 H         1 <0>         0.1016
     48 H19         3.2110   -2.2407   -6.3318 H         1 <0>         0.0626
     49 H20         3.3438   -4.1885   -4.8537 H         1 <0>         0.0827
     50 H21         1.8973   -3.2415   -4.4280 H         1 <0>         0.0710
     51 H22         5.3190    1.0090   -5.8589 H         1 <0>         0.1531
     52 H23         6.5593    2.3566   -7.7156 H         1 <0>         0.1828
     53 H24         7.2319   -4.1263   -8.3564 H         1 <0>         0.1994
     54 H25         3.4437   -4.1967   -1.2713 H         1 <0>         0.3451
     55 H26         1.9928   -4.1307   -2.0816 H         1 <0>         0.3457
@<TRIPOS>BOND
     1    1    6 ar
     2    1    2 ar
     3    1   31 1
     4    2    3 ar
     5    2   32 1
     6    3    4 ar
     7    3   33 1
     8    4    5 ar
     9    4    7 1
    10    5    6 ar
    11    5   34 1
    12    6   35 1
    13    7   11 1
    14    7    8 1
    15    7   36 1
    16    8    9 1
    17    8   37 1
    18    8   38 1
    19    9   10 1
    20    9   39 1
    21    9   40 1
    22   10   11 1
    23   10   41 1
    24   10   42 1
    25   11   12 am
    26   12   13 2
    27   12   14 1
    28   14   19 1
    29   14   15 1
    30   14   30 1
    31   15   16 1
    32   15   43 1
    33   15   44 1
    34   16   17 1
    35   16   45 1
    36   16   46 1
    37   17   18 1
    38   17   20 1
    39   18   19 1
    40   18   47 1
    41   18   48 1
    42   19   49 1
    43   19   50 1
    44   20   29 ar
    45   20   21 ar
    46   21   26 ar
    47   21   22 1
    48   22   23 2
    49   22   51 1
    50   23   24 1
    51   23   52 1
    52   24   25 1
    53   24   26 1
    54   26   27 ar
    55   27   28 ar
    56   28   29 ar
    57   28   53 1
    58   30   54 1
    59   30   55 1
@<TRIPOS>MOLECULE
CHEMBL605326
   56    60     0     0     0
SMALL
USER_CHARGES

@<TRIPOS>ATOM
      1 C1         -1.3423    0.5865   -0.9884 C.ar      1 <0>        -0.1107
      2 C2         -0.4152    1.6083   -1.0733 C.ar      1 <0>        -0.1089
      3 C3          0.9297    1.3372   -0.9042 C.ar      1 <0>        -0.0993
      4 C4          1.3475    0.0443   -0.6497 C.ar      1 <0>        -0.0963
      5 C5          0.4203   -0.9774   -0.5639 C.ar      1 <0>        -0.1134
      6 C6         -0.9244   -0.7065   -0.7344 C.ar      1 <0>        -0.1181
      7 C7          2.8138   -0.2514   -0.4663 C.3       1 <0>         0.1823
      8 C8          3.1320   -0.4175    1.0346 C.3       1 <0>        -0.1266
      9 C9          4.1641   -1.5760    1.0449 C.3       1 <0>        -0.1264
     10 C10         3.6424   -2.4675   -0.1096 C.3       1 <0>         0.0579
     11 N1          3.1547   -1.5194   -1.1278 N.am      1 <0>        -0.6106
     12 C11         3.0399   -1.7732   -2.4464 C.2       1 <0>         0.5176
     13 O1          2.5556   -0.9412   -3.1841 O.2       1 <0>        -0.4546
     14 C12         3.5132   -3.0907   -3.0042 C.3       1 <0>         0.0518
     15 C13         5.0433   -3.1230   -3.0069 C.3       1 <0>        -0.1545
     16 C14         5.5731   -1.9581   -3.8490 C.3       1 <0>         0.1558
     17 N2          4.9658   -2.0258   -5.1851 N.pl3     1 <0>        -0.6539
     18 C15         3.5019   -2.0908   -5.2933 C.3       1 <0>         0.1369
     19 C16         2.9953   -3.2542   -4.4350 C.3       1 <0>        -0.1372
     20 C17         5.7570   -2.0279   -6.3197 C.ar      1 <0>         0.4636
     21 C18         6.1382   -0.8246   -6.9331 C.ar      1 <0>        -0.2034
     22 C19         5.9000    0.5932   -6.6694 C.2       1 <0>        -0.1727
     23 C20         6.5427    1.2798   -7.6282 C.2       1 <0>         0.0669
     24 N3          7.1711    0.4095   -8.4809 N.pl3     1 <0>        -0.5703
     25 H1          7.6995    0.6699   -9.2515 H         1 <0>         0.4276
     26 C21         6.9442   -0.8799   -8.0850 C.ar      1 <0>         0.3223
     27 N4          7.3127   -2.0738   -8.5475 N.ar      1 <0>        -0.5256
     28 C22         6.9312   -3.1764   -7.9403 C.ar      1 <0>         0.3267
     29 N5          6.1803   -3.1698   -6.8534 N.ar      1 <0>        -0.5511
     30 N6          3.0023   -4.1870   -2.1705 N.4       1 <0>        -0.6397
     31 H2         -2.3934    0.7990   -1.1161 H         1 <0>         0.1262
     32 H3         -0.7416    2.6184   -1.2721 H         1 <0>         0.1279
     33 H4          1.6541    2.1355   -0.9712 H         1 <0>         0.1240
     34 H5          0.7468   -1.9876   -0.3655 H         1 <0>         0.1050
     35 H6         -1.6488   -1.5048   -0.6678 H         1 <0>         0.1225
     36 H7          3.4105    0.5581   -0.8867 H         1 <0>         0.0960
     37 H8          3.5717    0.4943    1.4388 H         1 <0>         0.0982
     38 H9          2.2361   -0.6942    1.5904 H         1 <0>         0.0882
     39 H10         5.1673   -1.2074    0.8311 H         1 <0>         0.0901
     40 H11         4.1404   -2.1120    1.9937 H         1 <0>         0.0997
     41 H12         4.4512   -3.0759   -0.5143 H         1 <0>         0.0804
     42 H13         2.8276   -3.1018    0.2394 H         1 <0>         0.0819
     43 H14         5.4110   -3.0300   -1.9850 H         1 <0>         0.0987
     44 H15         5.3865   -4.0657   -3.4332 H         1 <0>         0.1116
     45 H16         5.3075   -1.0136   -3.3743 H         1 <0>         0.0689
     46 H17         6.6570   -2.0336   -3.9361 H         1 <0>         0.0938
     47 H18         3.0674   -1.1571   -4.9363 H         1 <0>         0.1105
     48 H19         3.2192   -2.2538   -6.3333 H         1 <0>         0.0862
     49 H20         3.3578   -4.1956   -4.8478 H         1 <0>         0.1035
     50 H21         1.9053   -3.2546   -4.4295 H         1 <0>         0.1006
     51 H22         5.3186    1.0087   -5.8597 H         1 <0>         0.1538
     52 H23         6.5613    2.3562   -7.7148 H         1 <0>         0.1868
     53 H24         7.2490   -4.1263   -8.3443 H         1 <0>         0.2028
     54 H25         2.0084   -4.0741   -2.0386 H         1 <0>         0.4368
     55 H26         3.1831   -5.0687   -2.6266 H         1 <0>         0.4414
     56 H27         3.4646   -4.1712   -1.2738 H         1 <0>         0.4284
@<TRIPOS>BOND
     1    1    6 ar
     2    1    2 ar
     3    1   31 1
     4    2    3 ar
     5    2   32 1
     6    3    4 ar
     7    3   33 1
     8    4    5 ar
     9    4    7 1
    10    5    6 ar
    11    5   34 1
    12    6   35 1
    13    7   11 1
    14    7    8 1
    15    7   36 1
    16    8    9 1
    17    8   37 1
    18    8   38 1
    19    9   10 1
    20    9   39 1
    21    9   40 1
    22   10   11 1
    23   10   41 1
    24   10   42 1
    25   11   12 am
    26   12   13 2
    27   12   14 1
    28   14   19 1
    29   14   15 1
    30   14   30 1
    31   15   16 1
    32   15   43 1
    33   15   44 1
    34   16   17 1
    35   16   45 1
    36   16   46 1
    37   17   18 1
    38   17   20 1
    39   18   19 1
    40   18   47 1
    41   18   48 1
    42   19   49 1
    43   19   50 1
    44   20   29 ar
    45   20   21 ar
    46   21   26 ar
    47   21   22 1
    48   22   23 2
    49   22   51 1
    50   23   24 1
    51   23   52 1
    52   24   25 1
    53   24   26 1
    54   26   27 ar
    55   27   28 ar
    56   28   29 ar
    57   28   53 1
    58   30   54 1
    59   30   55 1
    60   30   56 1
@<TRIPOS>MOLECULE
CHEMBL596990
   52    56     0     0     0
SMALL
USER_CHARGES

@<TRIPOS>ATOM
      1 C1          1.9341    1.5400   -2.7052 C.ar      1 <0>        -0.1137
      2 C2          3.2437    1.9355   -2.5044 C.ar      1 <0>        -0.1186
      3 C3          4.1370    1.0672   -1.9118 C.ar      1 <0>        -0.1113
      4 C4          3.7301   -0.1986   -1.5123 C.ar      1 <0>        -0.1050
      5 C5          2.4241   -0.5904   -1.7027 C.ar      1 <0>        -0.0673
      6 C6          1.5282    0.2836   -2.3070 C.ar      1 <0>        -0.1196
      7 C7          1.9028   -1.9348   -1.2683 C.3       1 <0>        -0.0978
      8 C8          3.0483   -2.9286   -1.0830 C.3       1 <0>         0.1102
      9 N1          4.0972   -2.2682   -0.2885 N.am      1 <0>        -0.6112
     10 C9          4.7603   -1.1032   -0.8841 C.3       1 <0>         0.1353
     11 C10         4.4345   -2.7160    0.9371 C.2       1 <0>         0.4946
     12 O1          3.8083   -3.6218    1.4454 O.2       1 <0>        -0.5268
     13 C11         5.5899   -2.0913    1.6760 C.3       1 <0>         0.1147
     14 C12         6.8214   -2.0650    0.7678 C.3       1 <0>        -0.1395
     15 C13         7.1647   -3.4947    0.3379 C.3       1 <0>         0.1512
     16 N2          7.3189   -4.3257    1.5397 N.pl3     1 <0>        -0.6576
     17 C14         6.2294   -4.3518    2.5251 C.3       1 <0>         0.1443
     18 C15         5.8966   -2.9124    2.9305 C.3       1 <0>        -0.1105
     19 C16         8.4677   -5.0698    1.7394 C.ar      1 <0>         0.4819
     20 C17         8.5276   -6.4180    1.3544 C.ar      1 <0>        -0.2091
     21 C18         7.6006   -7.3583    0.7275 C.2       1 <0>        -0.1639
     22 C19         8.2512   -8.5277    0.6140 C.2       1 <0>         0.0533
     23 N3          9.5196   -8.4045    1.1197 N.pl3     1 <0>        -0.5736
     24 H1         10.1788   -9.1156    1.1475 H         1 <0>         0.4231
     25 C20         9.7192   -7.1316    1.5786 C.ar      1 <0>         0.3198
     26 N4         10.7433   -6.4979    2.1485 N.ar      1 <0>        -0.5374
     27 C21        10.6422   -5.2328    2.4939 C.ar      1 <0>         0.3268
     28 N5          9.5450   -4.5241    2.2960 N.ar      1 <0>        -0.5497
     29 N6          5.2383   -0.7186    2.0633 N.3       1 <0>        -0.8263
     30 H2          1.2297    2.2150   -3.1686 H         1 <0>         0.1240
     31 H3          3.5659    2.9198   -2.8105 H         1 <0>         0.1257
     32 H4          5.1609    1.3744   -1.7577 H         1 <0>         0.1261
     33 H5          0.5052   -0.0238   -2.4658 H         1 <0>         0.1224
     34 H6          1.3680   -1.8242   -0.3249 H         1 <0>         0.0804
     35 H7          1.2172   -2.3152   -2.0256 H         1 <0>         0.0876
     36 H8          2.6882   -3.8123   -0.5562 H         1 <0>         0.0989
     37 H9          3.4482   -3.2158   -2.0554 H         1 <0>         0.0756
     38 H10         5.4635   -1.4369   -1.6471 H         1 <0>         0.0865
     39 H11         5.2986   -0.5570   -0.1096 H         1 <0>         0.1094
     40 H12         6.6100   -1.4607   -0.1144 H         1 <0>         0.0834
     41 H13         7.6641   -1.6359    1.3099 H         1 <0>         0.0927
     42 H14         6.3608   -3.8931   -0.2811 H         1 <0>         0.0548
     43 H15         8.0969   -3.4926   -0.2270 H         1 <0>         0.0745
     44 H16         5.3492   -4.8201    2.0845 H         1 <0>         0.0814
     45 H17         6.5445   -4.9152    3.4034 H         1 <0>         0.0692
     46 H18         6.7480   -2.4754    3.4522 H         1 <0>         0.0854
     47 H19         5.0270   -2.9113    3.5876 H         1 <0>         0.0770
     48 H20         6.5872   -7.1523    0.4159 H         1 <0>         0.1528
     49 H21         7.8372   -9.4300    0.1888 H         1 <0>         0.1831
     50 H22        11.4930   -4.7522    2.9539 H         1 <0>         0.1999
     51 H23         4.8736   -0.2031    1.2764 H         1 <0>         0.3429
     52 H24         4.5845   -0.7160    2.8318 H         1 <0>         0.3500
@<TRIPOS>BOND
     1    1    6 ar
     2    1    2 ar
     3    1   30 1
     4    2    3 ar
     5    2   31 1
     6    3    4 ar
     7    3   32 1
     8    4   10 1
     9    4    5 ar
    10    5    6 ar
    11    5    7 1
    12    6   33 1
    13    7    8 1
    14    7   34 1
    15    7   35 1
    16    8    9 1
    17    8   36 1
    18    8   37 1
    19    9   10 1
    20    9   11 am
    21   10   38 1
    22   10   39 1
    23   11   12 2
    24   11   13 1
    25   13   18 1
    26   13   14 1
    27   13   29 1
    28   14   15 1
    29   14   40 1
    30   14   41 1
    31   15   16 1
    32   15   42 1
    33   15   43 1
    34   16   17 1
    35   16   19 1
    36   17   18 1
    37   17   44 1
    38   17   45 1
    39   18   46 1
    40   18   47 1
    41   19   28 ar
    42   19   20 ar
    43   20   25 ar
    44   20   21 1
    45   21   22 2
    46   21   48 1
    47   22   23 1
    48   22   49 1
    49   23   24 1
    50   23   25 1
    51   25   26 ar
    52   26   27 ar
    53   27   28 ar
    54   27   50 1
    55   29   51 1
    56   29   52 1
@<TRIPOS>MOLECULE
CHEMBL596990
   53    57     0     0     0
SMALL
USER_CHARGES

@<TRIPOS>ATOM
      1 C1          2.0244    1.5627   -2.7609 C.ar      1 <0>        -0.0994
      2 C2          3.3329    1.9505   -2.5394 C.ar      1 <0>        -0.1130
      3 C3          4.2118    1.0768   -1.9333 C.ar      1 <0>        -0.1136
      4 C4          3.7912   -0.1869   -1.5409 C.ar      1 <0>        -0.1307
      5 C5          2.4862   -0.5709   -1.7520 C.ar      1 <0>        -0.0621
      6 C6          1.6050    0.3085   -2.3698 C.ar      1 <0>        -0.1145
      7 C7          1.9503   -1.9125   -1.3265 C.3       1 <0>        -0.1018
      8 C8          3.0870   -2.9130   -1.1237 C.3       1 <0>         0.1114
      9 N1          4.1270   -2.2590   -0.3125 N.am      1 <0>        -0.6021
     10 C9          4.8062   -1.0977   -0.8970 C.3       1 <0>         0.1457
     11 C10         4.4425   -2.7093    0.9180 C.2       1 <0>         0.5066
     12 O1          3.8033   -3.6119    1.4157 O.2       1 <0>        -0.4730
     13 C11         5.5894   -2.0913    1.6754 C.3       1 <0>         0.0475
     14 C12         6.8339   -2.0665    0.7851 C.3       1 <0>        -0.1736
     15 C13         7.1781   -3.4961    0.3555 C.3       1 <0>         0.1545
     16 N2          7.3120   -4.3316    1.5566 N.pl3     1 <0>        -0.6549
     17 C14         6.2083   -4.3569    2.5262 C.3       1 <0>         0.1457
     18 C15         5.8751   -2.9177    2.9315 C.3       1 <0>        -0.1374
     19 C16         8.4551   -5.0806    1.7703 C.ar      1 <0>         0.4625
     20 C17         8.5157   -6.4276    1.3815 C.ar      1 <0>        -0.2037
     21 C18         7.5945   -7.3623    0.7380 C.2       1 <0>        -0.1742
     22 C19         8.2425   -8.5338    0.6298 C.2       1 <0>         0.0683
     23 N3          9.5038   -8.4170    1.1542 N.pl3     1 <0>        -0.5701
     24 H1         10.1599   -9.1306    1.1891 H         1 <0>         0.4279
     25 C20         9.7014   -7.1464    1.6204 C.ar      1 <0>         0.3230
     26 N4         10.7193   -6.5184    2.2072 N.ar      1 <0>        -0.5252
     27 C21        10.6178   -5.2542    2.5556 C.ar      1 <0>         0.3274
     28 N5          9.5262   -4.5408    2.3443 N.ar      1 <0>        -0.5505
     29 N6          5.2373   -0.7186    2.0623 N.4       1 <0>        -0.6353
     30 H2          1.3313    2.2420   -3.2350 H         1 <0>         0.1313
     31 H3          3.6657    2.9330   -2.8399 H         1 <0>         0.1316
     32 H4          5.2349    1.3779   -1.7630 H         1 <0>         0.1263
     33 H5          0.5828    0.0072   -2.5449 H         1 <0>         0.1295
     34 H6          1.4014   -1.7991   -0.3916 H         1 <0>         0.0860
     35 H7          1.2745   -2.2885   -2.0946 H         1 <0>         0.0994
     36 H8          2.7135   -3.7948   -0.6031 H         1 <0>         0.1094
     37 H9          3.5005   -3.2020   -2.0899 H         1 <0>         0.0904
     38 H10         5.5194   -1.4352   -1.6491 H         1 <0>         0.1075
     39 H11         5.3355   -0.5549   -0.1139 H         1 <0>         0.0677
     40 H12         6.6375   -1.4586   -0.0980 H         1 <0>         0.1082
     41 H13         7.6703   -1.6423    1.3407 H         1 <0>         0.1133
     42 H14         6.3817   -3.8895   -0.2764 H         1 <0>         0.0687
     43 H15         8.1183   -3.4956   -0.1959 H         1 <0>         0.0960
     44 H16         5.3329   -4.8205    2.0714 H         1 <0>         0.0917
     45 H17         6.5087   -4.9243    3.4070 H         1 <0>         0.0914
     46 H18         6.7205   -2.4854    3.4669 H         1 <0>         0.1049
     47 H19         4.9961   -2.9155    3.5761 H         1 <0>         0.1058
     48 H20         6.5865   -7.1516    0.4124 H         1 <0>         0.1535
     49 H21         7.8314   -9.4330    0.1954 H         1 <0>         0.1872
     50 H22        11.4636   -4.7783    3.0295 H         1 <0>         0.2032
     51 H23         4.5353   -0.7429    2.7866 H         1 <0>         0.4403
     52 H24         6.0591   -0.2448    2.4061 H         1 <0>         0.4420
     53 H25         4.8757   -0.2253    1.2598 H         1 <0>         0.4293
@<TRIPOS>BOND
     1    1    6 ar
     2    1    2 ar
     3    1   30 1
     4    2    3 ar
     5    2   31 1
     6    3    4 ar
     7    3   32 1
     8    4   10 1
     9    4    5 ar
    10    5    6 ar
    11    5    7 1
    12    6   33 1
    13    7    8 1
    14    7   34 1
    15    7   35 1
    16    8    9 1
    17    8   36 1
    18    8   37 1
    19    9   10 1
    20    9   11 am
    21   10   38 1
    22   10   39 1
    23   11   12 2
    24   11   13 1
    25   13   18 1
    26   13   14 1
    27   13   29 1
    28   14   15 1
    29   14   40 1
    30   14   41 1
    31   15   16 1
    32   15   42 1
    33   15   43 1
    34   16   17 1
    35   16   19 1
    36   17   18 1
    37   17   44 1
    38   17   45 1
    39   18   46 1
    40   18   47 1
    41   19   28 ar
    42   19   20 ar
    43   20   25 ar
    44   20   21 1
    45   21   22 2
    46   21   48 1
    47   22   23 1
    48   22   49 1
    49   23   24 1
    50   23   25 1
    51   25   26 ar
    52   26   27 ar
    53   27   28 ar
    54   27   50 1
    55   29   51 1
    56   29   52 1
    57   29   53 1
@<TRIPOS>MOLECULE
CHEMBL376726
   22    23     0     0     0
SMALL
USER_CHARGES

@<TRIPOS>ATOM
      1 C1         -0.0168    1.3891    0.0097 C.ar      1 <0>        -0.1535
      2 C2          1.1399    2.1082    0.0025 C.ar      1 <0>        -0.0168
      3 C3          2.3717    1.4361   -0.0128 C.ar      1 <0>        -0.1387
      4 C4          3.5965    2.1233   -0.0202 C.ar      1 <0>         0.1638
      5 N1          4.7235    1.4508   -0.0342 N.ar      1 <0>        -0.4902
      6 C5          4.7687    0.1255   -0.0418 C.ar      1 <0>         0.1092
      7 C6          3.6377   -0.6328   -0.0356 C.ar      1 <0>        -0.1872
      8 C7          2.3897    0.0168   -0.0206 C.ar      1 <0>         0.0549
      9 C8          1.1791   -0.6902   -0.0128 C.ar      1 <0>        -0.6832
     10 C9          0.0021   -0.0041    0.0020 C.ar      1 <0>         0.0336
     11 S1          1.1797   -2.4522   -0.0228 S.o2      1 <0>         2.7034
     12 O1          2.0857   -2.8637    0.9917 O.2       1 <0>        -0.9553
     13 O2         -0.1818   -2.8587   -0.0389 O.2       1 <0>        -0.9585
     14 N2          1.8345   -2.9334   -1.4657 N.pl3     1 <0>        -1.2471
     15 H1         -0.9642    1.9073    0.0261 H         1 <0>         0.1430
     16 H2          1.1093    3.1878    0.0082 H         1 <0>         0.1457
     17 H3          3.6110    3.2032   -0.0148 H         1 <0>         0.1702
     18 H4          5.7301   -0.3665   -0.0537 H         1 <0>         0.1625
     19 H5          3.6974   -1.7111   -0.0424 H         1 <0>         0.1491
     20 H6         -0.9306   -0.5485    0.0083 H         1 <0>         0.1526
     21 H7          2.3198   -3.7713   -1.5226 H         1 <0>         0.4239
     22 H8          1.7326   -2.3774   -2.2540 H         1 <0>         0.4187
@<TRIPOS>BOND
     1    1   10 ar
     2    1    2 ar
     3    1   15 1
     4    2    3 ar
     5    2   16 1
     6    3    8 ar
     7    3    4 ar
     8    4    5 ar
     9    4   17 1
    10    5    6 ar
    11    6    7 ar
    12    6   18 1
    13    7    8 ar
    14    7   19 1
    15    8    9 ar
    16    9   10 ar
    17    9   11 1
    18   10   20 1
    19   11   12 2
    20   11   13 2
    21   11   14 1
    22   14   21 1
    23   14   22 1
@<TRIPOS>MOLECULE
CHEMBL253693
   71    77     0     0     0
SMALL
USER_CHARGES

@<TRIPOS>ATOM
      1 C1         -0.0225    1.8097    0.0120 C.3       1 <0>        -0.1490
      2 S1          0.0021   -0.0041    0.0020 S.3       1 <0>         0.0306
      3 C2          0.8767   -0.4266    1.4721 C.ar      1 <0>         0.3272
      4 N1          1.3174    0.5551    2.2576 N.ar      1 <0>        -0.5276
      5 C3          1.9766    0.3014    3.3689 C.ar      1 <0>         0.2401
      6 C4          2.2114   -1.0411    3.7185 C.ar      1 <0>        -0.2287
      7 C5          2.9053   -1.3920    4.8864 C.ar      1 <0>         0.0090
      8 C6          3.0909   -2.7406    5.1528 C.ar      1 <0>        -0.1093
      9 C7          2.5820   -3.7021    4.2518 C.ar      1 <0>         0.2469
     10 N2          1.9327   -3.3451    3.1593 N.ar      1 <0>        -0.4555
     11 C8          1.7278   -2.0628    2.8584 C.ar      1 <0>         0.3665
     12 N3          1.0636   -1.7028    1.7525 N.ar      1 <0>        -0.4844
     13 C9          2.7816   -5.1415    4.5386 C.ar      1 <0>        -0.0199
     14 C10         3.9528   -5.5760    5.1591 C.ar      1 <0>        -0.0761
     15 C11         4.1327   -6.9181    5.4241 C.ar      1 <0>        -0.1019
     16 C12         3.1545   -7.8322    5.0753 C.ar      1 <0>        -0.1461
     17 C13         1.9909   -7.4074    4.4592 C.ar      1 <0>        -0.0966
     18 C14         1.7967   -6.0672    4.1946 C.ar      1 <0>        -0.0682
     19 C15         3.3576   -9.2966    5.3671 C.3       1 <0>         0.0427
     20 N4          2.8280   -9.6080    6.7015 N.4       1 <0>        -0.3844
     21 C16         3.6083   -8.8894    7.7160 C.3       1 <0>        -0.0094
     22 C17         3.0105   -9.1461    9.1010 C.3       1 <0>        -0.1549
     23 C18         3.0469  -10.6483    9.3963 C.3       1 <0>         0.1692
     24 C19         2.2929  -11.3941    8.2915 C.3       1 <0>        -0.1572
     25 C20         2.9173  -11.0542    6.9364 C.3       1 <0>        -0.0013
     26 N5          2.4071  -10.9092   10.6881 N.pl3     1 <0>        -0.3879
     27 C21         3.0024  -11.4798   11.7735 C.ar      1 <0>         0.3770
     28 C22         2.0235  -11.5359   12.7849 C.ar      1 <0>        -0.3385
     29 C23         0.8425  -10.9789   12.2485 C.2       1 <0>         0.1248
     30 N6          1.0803  -10.6099   11.0222 N.2       1 <0>        -0.2621
     31 C24         2.3811  -12.0894   14.0294 C.ar      1 <0>         0.5246
     32 N7          3.6236  -12.5318   14.1900 N.ar      1 <0>        -0.6045
     33 C25         4.5081  -12.4581   13.2113 C.ar      1 <0>         0.4013
     34 N8          4.2215  -11.9497   12.0328 N.ar      1 <0>        -0.5849
     35 N9          1.4630  -12.1699   15.0579 N.pl3     1 <0>        -0.8137
     36 C26         3.8172   -3.1690    6.3720 C.ar      1 <0>        -0.0498
     37 C27         3.2649   -4.1343    7.2126 C.ar      1 <0>        -0.0995
     38 C28         3.9459   -4.5295    8.3460 C.ar      1 <0>        -0.1215
     39 C29         5.1740   -3.9694    8.6488 C.ar      1 <0>        -0.1085
     40 C30         5.7270   -3.0112    7.8184 C.ar      1 <0>        -0.1111
     41 C31         5.0579   -2.6123    6.6792 C.ar      1 <0>        -0.1026
     42 H1          1.0001    2.1870    0.0043 H         1 <0>         0.0934
     43 H2         -0.5497    2.1708   -0.8711 H         1 <0>         0.1178
     44 H3         -0.5327    2.1613    0.9088 H         1 <0>         0.0934
     45 H4          2.3293    1.1056    3.9977 H         1 <0>         0.1880
     46 H5          3.2838   -0.6351    5.5574 H         1 <0>         0.1577
     47 H6          4.7174   -4.8634    5.4312 H         1 <0>         0.1446
     48 H7          5.0391   -7.2558    5.9044 H         1 <0>         0.1363
     49 H8          1.2311   -8.1257    4.1890 H         1 <0>         0.1373
     50 H9          0.8860   -5.7362    3.7177 H         1 <0>         0.1439
     51 H10         2.8331   -9.8921    4.6199 H         1 <0>         0.1409
     52 H11         4.4220   -9.5292    5.3353 H         1 <0>         0.1389
     53 H12         4.6402   -9.2399    7.6955 H         1 <0>         0.1343
     54 H13         3.5841   -7.8208    7.5026 H         1 <0>         0.1398
     55 H14         3.5924   -8.6131    9.8530 H         1 <0>         0.1160
     56 H15         1.9786   -8.7957    9.1226 H         1 <0>         0.1018
     57 H16         4.0818  -10.9891    9.4253 H         1 <0>         0.1233
     58 H17         2.3618  -12.4680    8.4649 H         1 <0>         0.1173
     59 H18         1.2461  -11.0904    8.2963 H         1 <0>         0.1025
     60 H19         2.3830  -11.5837    6.1476 H         1 <0>         0.1398
     61 H20         3.9639  -11.3585    6.9326 H         1 <0>         0.1350
     62 H21        -0.0981  -10.8726   12.7686 H         1 <0>         0.1977
     63 H22         5.5069  -12.8297   13.3864 H         1 <0>         0.2083
     64 H23         0.5590  -11.8429   14.9278 H         1 <0>         0.4163
     65 H24         1.7220  -12.5534   15.9104 H         1 <0>         0.4177
     66 H25         2.3059   -4.5717    6.9776 H         1 <0>         0.1206
     67 H26         3.5191   -5.2772    8.9980 H         1 <0>         0.1220
     68 H27         5.7030   -4.2813    9.5372 H         1 <0>         0.1264
     69 H28         6.6860   -2.5771    8.0600 H         1 <0>         0.1307
     70 H29         5.4926   -1.8673    6.0293 H         1 <0>         0.1286
     71 H30         1.8628   -9.3186    6.7551 H         1 <0>         0.4246
@<TRIPOS>BOND
     1    1    2 1
     2    1   42 1
     3    1   43 1
     4    1   44 1
     5    2    3 1
     6    3   12 ar
     7    3    4 ar
     8    4    5 ar
     9    5    6 ar
    10    5   45 1
    11    6   11 ar
    12    6    7 ar
    13    7    8 ar
    14    7   46 1
    15    8    9 ar
    16    8   36 1
    17    9   10 ar
    18    9   13 1
    19   10   11 ar
    20   11   12 ar
    21   13   18 ar
    22   13   14 ar
    23   14   15 ar
    24   14   47 1
    25   15   16 ar
    26   15   48 1
    27   16   17 ar
    28   16   19 1
    29   17   18 ar
    30   17   49 1
    31   18   50 1
    32   19   20 1
    33   19   51 1
    34   19   52 1
    35   20   25 1
    36   20   21 1
    37   20   71 1
    38   21   22 1
    39   21   53 1
    40   21   54 1
    41   22   23 1
    42   22   55 1
    43   22   56 1
    44   23   24 1
    45   23   26 1
    46   23   57 1
    47   24   25 1
    48   24   58 1
    49   24   59 1
    50   25   60 1
    51   25   61 1
    52   26   30 1
    53   26   27 1
    54   27   34 ar
    55   27   28 ar
    56   28   29 1
    57   28   31 ar
    58   29   30 2
    59   29   62 1
    60   31   32 ar
    61   31   35 1
    62   32   33 ar
    63   33   34 ar
    64   33   63 1
    65   35   64 1
    66   35   65 1
    67   36   41 ar
    68   36   37 ar
    69   37   38 ar
    70   37   66 1
    71   38   39 ar
    72   38   67 1
    73   39   40 ar
    74   39   68 1
    75   40   41 ar
    76   40   69 1
    77   41   70 1
@<TRIPOS>MOLECULE
CHEMBL162
   62    69     0     0     0
SMALL
USER_CHARGES

@<TRIPOS>ATOM
      1 C1         -0.1276    1.5938   -0.2902 C.3       1 <0>        -0.1687
      2 C2         -0.0844    0.0680   -0.1855 C.3       1 <0>         0.3345
      3 C3          0.5692   -0.4497   -1.4608 C.3       1 <0>         0.0405
      4 H1          1.4795    0.1163   -1.6584 H         1 <0>         0.1372
      5 C4          0.9165   -1.9328   -1.2885 C.3       1 <0>        -0.0062
      6 H2          1.3941   -2.3067   -2.1942 H         1 <0>         0.1555
      7 C5          1.8808   -2.0612   -0.1039 C.3       1 <0>        -0.1828
      8 C6          1.2106   -1.5234    1.1545 C.3       1 <0>         0.3001
      9 O1          0.6584   -0.2480    0.9698 O.3       1 <0>        -0.3232
     10 N1          0.2248   -2.4800    1.6600 N.pl3     1 <0>        -0.5368
     11 C7          0.4774   -3.5588    2.4701 C.ar      1 <0>         0.1470
     12 C8          1.6719   -4.0282    3.0159 C.ar      1 <0>        -0.1521
     13 C9          1.6013   -5.1613    3.8083 C.ar      1 <0>        -0.0582
     14 C10         0.4065   -5.8141    4.0588 C.ar      1 <0>        -0.1457
     15 C11        -0.7928   -5.3694    3.5296 C.ar      1 <0>        -0.0281
     16 C12        -0.7420   -4.2270    2.7281 C.ar      1 <0>        -0.1133
     17 C13        -1.7834   -3.4873    2.0211 C.ar      1 <0>         0.0272
     18 C14        -1.1387   -2.4235    1.3862 C.ar      1 <0>         0.0375
     19 C15        -1.8766   -1.5121    0.6225 C.ar      1 <0>         0.0893
     20 N2         -1.4701   -0.3965   -0.1042 N.pl3     1 <0>        -0.5183
     21 C16        -2.5609    0.1893   -0.7020 C.ar      1 <0>         0.1620
     22 C17        -2.6555    1.3256   -1.5046 C.ar      1 <0>        -0.1301
     23 C18        -3.9158    1.6704   -1.9636 C.ar      1 <0>        -0.0737
     24 C19        -5.0430    0.9315   -1.6503 C.ar      1 <0>        -0.1357
     25 C20        -4.9749   -0.2010   -0.8555 C.ar      1 <0>        -0.0503
     26 C21        -3.7134   -0.5626   -0.3834 C.ar      1 <0>        -0.1044
     27 C22        -3.2655   -1.6685    0.4924 C.ar      1 <0>        -0.0362
     28 C23        -3.9045   -2.7331    1.1195 C.ar      1 <0>        -0.0289
     29 C24        -3.1819   -3.6452    1.8815 C.ar      1 <0>        -0.1255
     30 C25        -4.1160   -4.6505    2.4114 C.2       1 <0>         0.5633
     31 O2         -3.7988   -5.5888    3.1172 O.2       1 <0>        -0.5106
     32 N3         -5.3694   -4.3854    2.0058 N.am      1 <0>        -0.7162
     33 C26        -5.3459   -3.1769    1.1740 C.3       1 <0>         0.1359
     34 N4         -0.3065   -2.7008   -1.0194 N.4       1 <0>        -0.5253
     35 C27         0.0148   -4.1335   -0.9747 C.3       1 <0>        -0.0497
     36 O3         -0.3352   -0.2957   -2.5564 O.3       1 <0>        -0.3613
     37 C28         0.3074   -0.0892   -3.8159 C.3       1 <0>         0.0162
     38 H3          0.8308    2.0068    0.0247 H         1 <0>         0.0984
     39 H4         -0.3256    1.8817   -1.3227 H         1 <0>         0.1037
     40 H5         -0.9185    1.9799    0.3528 H         1 <0>         0.0921
     41 H6          2.1400   -3.1098    0.0419 H         1 <0>         0.1233
     42 H7          2.7852   -1.4878   -0.3076 H         1 <0>         0.1455
     43 H8          1.9835   -1.4379    1.9183 H         1 <0>         0.1550
     44 H9          2.6113   -3.5296    2.8282 H         1 <0>         0.1364
     45 H10         2.5093   -5.5494    4.2456 H         1 <0>         0.1359
     46 H11         0.4102   -6.6943    4.6846 H         1 <0>         0.1352
     47 H12        -1.7231   -5.8814    3.7271 H         1 <0>         0.1602
     48 H13        -1.7841    1.9115   -1.7569 H         1 <0>         0.1438
     49 H14        -4.0225    2.5459   -2.5869 H         1 <0>         0.1335
     50 H15        -6.0015    1.2460   -2.0361 H         1 <0>         0.1333
     51 H16        -5.8562   -0.7761   -0.6128 H         1 <0>         0.1416
     52 H17        -6.1577   -4.9060    2.2257 H         1 <0>         0.4348
     53 H18        -5.9609   -2.3989    1.6262 H         1 <0>         0.1115
     54 H19        -5.7062   -3.4047    0.1708 H         1 <0>         0.1104
     55 H20        -0.6946   -2.4153   -0.1328 H         1 <0>         0.4186
     56 H21         0.7414   -4.3184   -0.1836 H         1 <0>         0.1191
     57 H22        -0.8927   -4.7033   -0.7750 H         1 <0>         0.1256
     58 H23         0.4340   -4.4418   -1.9324 H         1 <0>         0.1255
     59 H24        -0.4469    0.0185   -4.5954 H         1 <0>         0.1100
     60 H25         0.9142    0.8152   -3.7703 H         1 <0>         0.0633
     61 H26         0.9451   -0.9435   -4.0429 H         1 <0>         0.0514
     62 H27        -0.9792   -2.5296   -1.7517 H         1 <0>         0.4274
@<TRIPOS>BOND
     1    1    2 1
     2    1   38 1
     3    1   39 1
     4    1   40 1
     5    2    9 1
     6    2   20 1
     7    2    3 1
     8    3    4 1
     9    3    5 1
    10    3   36 1
    11    5    6 1
    12    5    7 1
    13    5   34 1
    14    7    8 1
    15    7   41 1
    16    7   42 1
    17    8    9 1
    18    8   10 1
    19    8   43 1
    20   10   18 1
    21   10   11 1
    22   11   16 ar
    23   11   12 ar
    24   12   13 ar
    25   12   44 1
    26   13   14 ar
    27   13   45 1
    28   14   15 ar
    29   14   46 1
    30   15   16 ar
    31   15   47 1
    32   16   17 1
    33   17   29 ar
    34   17   18 ar
    35   18   19 ar
    36   19   27 ar
    37   19   20 1
    38   20   21 1
    39   21   26 ar
    40   21   22 ar
    41   22   23 ar
    42   22   48 1
    43   23   24 ar
    44   23   49 1
    45   24   25 ar
    46   24   50 1
    47   25   26 ar
    48   25   51 1
    49   26   27 1
    50   27   28 ar
    51   28   33 1
    52   28   29 ar
    53   29   30 1
    54   30   31 2
    55   30   32 am
    56   32   33 1
    57   32   52 1
    58   33   53 1
    59   33   54 1
    60   34   35 1
    61   34   55 1
    62   34   62 1
    63   35   56 1
    64   35   57 1
    65   35   58 1
    66   36   37 1
    67   37   59 1
    68   37   60 1
    69   37   61 1
@<TRIPOS>MOLECULE
CHEMBL162
   61    68     0     0     0
SMALL
USER_CHARGES

@<TRIPOS>ATOM
      1 C1         -0.0567    1.5513   -0.0894 C.3       1 <0>        -0.1681
      2 C2         -0.0278    0.0218   -0.0599 C.3       1 <0>         0.3623
      3 C3          0.5811   -0.4397   -1.3782 C.3       1 <0>         0.0679
      4 H1          1.4914    0.1262   -1.5761 H         1 <0>         0.0865
      5 C4          0.9165   -1.9328   -1.2885 C.3       1 <0>         0.0550
      6 H2          1.3622   -2.2669   -2.2254 H         1 <0>         0.0644
      7 C5          1.9146   -2.1282   -0.1417 C.3       1 <0>        -0.1713
      8 C6          1.2889   -1.6457    1.1613 C.3       1 <0>         0.3303
      9 O1          0.7459   -0.3574    1.0554 O.3       1 <0>        -0.3432
     10 N1          0.3079   -2.6158    1.6500 N.pl3     1 <0>        -0.5147
     11 C7          0.5725   -3.7353    2.3988 C.ar      1 <0>         0.1480
     12 C8          1.7775   -4.2425    2.8844 C.ar      1 <0>        -0.1567
     13 C9          1.7179   -5.4120    3.6229 C.ar      1 <0>        -0.0771
     14 C10         0.5239   -6.0644    3.8782 C.ar      1 <0>        -0.1623
     15 C11        -0.6857   -5.5826    3.4081 C.ar      1 <0>        -0.0380
     16 C12        -0.6461   -4.4031    2.6615 C.ar      1 <0>        -0.1052
     17 C13        -1.6998   -3.6196    2.0235 C.ar      1 <0>        -0.0146
     18 C14        -1.0625   -2.5326    1.4212 C.ar      1 <0>         0.1328
     19 C15        -1.8127   -1.5778    0.7254 C.ar      1 <0>         0.2189
     20 N2         -1.4156   -0.4323    0.0413 N.pl3     1 <0>        -0.4798
     21 C16        -2.5171    0.1927   -0.4937 C.ar      1 <0>         0.1719
     22 C17        -2.6230    1.3676   -1.2371 C.ar      1 <0>        -0.1371
     23 C18        -3.8926    1.7468   -1.6400 C.ar      1 <0>        -0.0918
     24 C19        -5.0181    1.0048   -1.3284 C.ar      1 <0>        -0.1543
     25 C20        -4.9390   -0.1657   -0.5916 C.ar      1 <0>        -0.0609
     26 C21        -3.6680   -0.5623   -0.1765 C.ar      1 <0>        -0.0961
     27 C22        -3.2066   -1.7140    0.6307 C.ar      1 <0>        -0.0806
     28 C23        -3.8384   -2.8014    1.2249 C.ar      1 <0>        -0.0396
     29 C24        -3.1037   -3.7566    1.9194 C.ar      1 <0>        -0.1488
     30 C25        -4.0327   -4.7771    2.4285 C.2       1 <0>         0.5678
     31 O2         -3.7051   -5.7517    3.0781 O.2       1 <0>        -0.5303
     32 N3         -5.2947   -4.4802    2.0748 N.am      1 <0>        -0.7263
     33 C26        -5.2825   -3.2330    1.3021 C.3       1 <0>         0.1443
     34 N4         -0.3065   -2.7008   -1.0194 N.3       1 <0>        -0.6725
     35 C27        -0.9816   -3.0711   -2.2704 C.3       1 <0>         0.0321
     36 O3         -0.3541   -0.2236   -2.4368 O.3       1 <0>        -0.3500
     37 C28         0.2525    0.0376   -3.7040 C.3       1 <0>         0.0254
     38 H3          0.9143    1.9390    0.2190 H         1 <0>         0.0847
     39 H4         -0.2789    1.8910   -1.1010 H         1 <0>         0.0945
     40 H5         -0.8258    1.9134    0.5927 H         1 <0>         0.0811
     41 H6          2.1661   -3.1852   -0.0547 H         1 <0>         0.0955
     42 H7          2.8189   -1.5546   -0.3450 H         1 <0>         0.1024
     43 H8          2.0854   -1.6051    1.9042 H         1 <0>         0.1256
     44 H9          2.7165   -3.7447    2.6923 H         1 <0>         0.1264
     45 H10         2.6343   -5.8299    4.0129 H         1 <0>         0.1227
     46 H11         0.5364   -6.9739    4.4603 H         1 <0>         0.1222
     47 H12        -1.6153   -6.0942    3.6091 H         1 <0>         0.1517
     48 H13        -1.7529    1.9564   -1.4875 H         1 <0>         0.1345
     49 H14        -4.0081    2.6526   -2.2167 H         1 <0>         0.1197
     50 H15        -5.9842    1.3471   -1.6689 H         1 <0>         0.1193
     51 H16        -5.8191   -0.7431   -0.3501 H         1 <0>         0.1299
     52 H17        -6.0819   -5.0031    2.2935 H         1 <0>         0.4244
     53 H18        -5.8747   -2.4718    1.8101 H         1 <0>         0.0969
     54 H19        -5.6755   -3.4081    0.3006 H         1 <0>         0.0963
     55 H20        -0.1054   -3.5172   -0.4616 H         1 <0>         0.3444
     56 H21        -1.8838   -3.6387   -2.0422 H         1 <0>         0.0645
     57 H22        -1.2495   -2.1685   -2.8197 H         1 <0>         0.0818
     58 H23        -0.3126   -3.6808   -2.8776 H         1 <0>         0.0150
     59 H24        -0.5237    0.1905   -4.4538 H         1 <0>         0.0929
     60 H25         0.8707    0.9325   -3.6333 H         1 <0>         0.0448
     61 H26         0.8732   -0.8111   -3.9915 H         1 <0>         0.0400
@<TRIPOS>BOND
     1    1    2 1
     2    1   38 1
     3    1   39 1
     4    1   40 1
     5    2    9 1
     6    2   20 1
     7    2    3 1
     8    3    4 1
     9    3    5 1
    10    3   36 1
    11    5    6 1
    12    5    7 1
    13    5   34 1
    14    7    8 1
    15    7   41 1
    16    7   42 1
    17    8    9 1
    18    8   10 1
    19    8   43 1
    20   10   18 1
    21   10   11 1
    22   11   16 ar
    23   11   12 ar
    24   12   13 ar
    25   12   44 1
    26   13   14 ar
    27   13   45 1
    28   14   15 ar
    29   14   46 1
    30   15   16 ar
    31   15   47 1
    32   16   17 1
    33   17   29 ar
    34   17   18 ar
    35   18   19 ar
    36   19   27 ar
    37   19   20 1
    38   20   21 1
    39   21   26 ar
    40   21   22 ar
    41   22   23 ar
    42   22   48 1
    43   23   24 ar
    44   23   49 1
    45   24   25 ar
    46   24   50 1
    47   25   26 ar
    48   25   51 1
    49   26   27 1
    50   27   28 ar
    51   28   33 1
    52   28   29 ar
    53   29   30 1
    54   30   31 2
    55   30   32 am
    56   32   33 1
    57   32   52 1
    58   33   53 1
    59   33   54 1
    60   34   35 1
    61   34   55 1
    62   35   56 1
    63   35   57 1
    64   35   58 1
    65   36   37 1
    66   37   59 1
    67   37   60 1
    68   37   61 1
@<TRIPOS>MOLECULE
CHEMBL227381
   51    53     0     0     0
SMALL
USER_CHARGES

@<TRIPOS>ATOM
      1 C1          2.5162    0.9496    1.4171 C.ar      1 <0>        -0.1554
      2 C2          1.8179    1.8754    0.7027 C.ar      1 <0>        -0.0093
      3 C3          0.8924    1.4496   -0.2625 C.ar      1 <0>        -0.1399
      4 C4          0.1441    2.3570   -1.0300 C.ar      1 <0>         0.1714
      5 N1         -0.7096    1.9109   -1.9214 N.ar      1 <0>        -0.4887
      6 C5         -0.9082    0.6184   -2.1416 C.ar      1 <0>         0.1173
      7 C6         -0.2327   -0.3410   -1.4505 C.ar      1 <0>        -0.1970
      8 C7          0.7007    0.0595   -0.4769 C.ar      1 <0>         0.0581
      9 C8          1.4373   -0.8645    0.2774 C.ar      1 <0>        -0.6933
     10 C9          2.3271   -0.4146    1.2059 C.ar      1 <0>         0.0350
     11 S1          1.2137   -2.5943    0.0269 S.o2      1 <0>         2.6972
     12 O1          2.1244   -3.2517    0.8974 O.2       1 <0>        -0.9441
     13 O2         -0.1865   -2.8329    0.0680 O.2       1 <0>        -0.9313
     14 N2          1.7064   -2.9332   -1.5173 N.pl3     1 <0>        -1.1159
     15 C10         3.1062   -2.7326   -1.9002 C.3       1 <0>         0.0917
     16 C11         3.3893   -3.4769   -3.2066 C.3       1 <0>        -0.0174
     17 N3          4.7929   -3.2757   -3.5905 N.4       1 <0>        -0.5072
     18 C12         5.0647   -3.9903   -4.8449 C.3       1 <0>         0.0005
     19 C13         6.5266   -3.7808   -5.2447 C.3       1 <0>         0.0259
     20 O3          7.3784   -4.3883   -4.2714 O.3       1 <0>        -0.3954
     21 C14         8.7728   -4.2495   -4.5517 C.3       1 <0>         0.1109
     22 C15         9.5728   -4.9233   -3.4668 C.ar      1 <0>        -0.1060
     23 C16         9.9573   -4.2093   -2.3472 C.ar      1 <0>        -0.0864
     24 C17        10.6911   -4.8267   -1.3519 C.ar      1 <0>        -0.1127
     25 C18        11.0406   -6.1596   -1.4761 C.ar      1 <0>        -0.0211
     26 C19        10.6554   -6.8736   -2.5967 C.ar      1 <0>        -0.1110
     27 C20         9.9169   -6.2566   -3.5888 C.ar      1 <0>        -0.0818
     28 Cl1        11.9627   -6.9356   -0.2265 Cl        1 <0>        -0.0535
     29 H1          3.2315    1.2784    2.1565 H         1 <0>         0.1450
     30 H2          1.9750    2.9294    0.8779 H         1 <0>         0.1485
     31 H3          0.2706    3.4199   -0.8866 H         1 <0>         0.1730
     32 H4         -1.6264    0.3180   -2.8902 H         1 <0>         0.1633
     33 H5         -0.4102   -1.3883   -1.6456 H         1 <0>         0.1411
     34 H6          2.8949   -1.1263    1.7868 H         1 <0>         0.1513
     35 H7          1.0683   -3.2645   -2.1683 H         1 <0>         0.4271
     36 H8          3.2957   -1.6683   -2.0399 H         1 <0>         0.0888
     37 H9          3.7565   -3.1173   -1.1145 H         1 <0>         0.1054
     38 H10         3.1998   -4.5411   -3.0669 H         1 <0>         0.1451
     39 H11         2.7390   -3.0921   -3.9922 H         1 <0>         0.1423
     40 H12         4.9683   -2.2905   -3.7199 H         1 <0>         0.4290
     41 H13         4.8752   -5.0546   -4.7051 H         1 <0>         0.1434
     42 H14         4.4144   -3.6056   -5.6305 H         1 <0>         0.1482
     43 H15         6.7056   -4.2360   -6.2189 H         1 <0>         0.1020
     44 H16         6.7393   -2.7131   -5.2979 H         1 <0>         0.0775
     45 H17         8.9984   -4.7144   -5.5115 H         1 <0>         0.0731
     46 H18         9.0321   -3.1916   -4.5906 H         1 <0>         0.0705
     47 H19         9.6847   -3.1688   -2.2505 H         1 <0>         0.1320
     48 H20        10.9918   -4.2687   -0.4774 H         1 <0>         0.1393
     49 H21        10.9283   -7.9140   -2.6944 H         1 <0>         0.1401
     50 H22         9.6121   -6.8152   -4.4615 H         1 <0>         0.1345
     51 H23         5.3949   -3.6319   -2.8633 H         1 <0>         0.4391
@<TRIPOS>BOND
     1    1   10 ar
     2    1    2 ar
     3    1   29 1
     4    2    3 ar
     5    2   30 1
     6    3    8 ar
     7    3    4 ar
     8    4    5 ar
     9    4   31 1
    10    5    6 ar
    11    6    7 ar
    12    6   32 1
    13    7    8 ar
    14    7   33 1
    15    8    9 ar
    16    9   10 ar
    17    9   11 1
    18   10   34 1
    19   11   12 2
    20   11   13 2
    21   11   14 1
    22   14   15 1
    23   14   35 1
    24   15   16 1
    25   15   36 1
    26   15   37 1
    27   16   17 1
    28   16   38 1
    29   16   39 1
    30   17   18 1
    31   17   40 1
    32   17   51 1
    33   18   19 1
    34   18   41 1
    35   18   42 1
    36   19   20 1
    37   19   43 1
    38   19   44 1
    39   20   21 1
    40   21   22 1
    41   21   45 1
    42   21   46 1
    43   22   27 ar
    44   22   23 ar
    45   23   24 ar
    46   23   47 1
    47   24   25 ar
    48   24   48 1
    49   25   26 ar
    50   25   28 1
    51   26   27 ar
    52   26   49 1
    53   27   50 1
@<TRIPOS>MOLECULE
CHEMBL599448
   49    52     0     0     0
SMALL
USER_CHARGES

@<TRIPOS>ATOM
      1 C1          1.1510   -2.3353    0.2956 C.ar      1 <0>        -0.0878
      2 C2          2.2889   -3.0746    0.5580 C.ar      1 <0>        -0.1111
      3 C3          2.1787   -4.3575    1.0640 C.ar      1 <0>        -0.0262
      4 C4          0.9293   -4.8998    1.3069 C.ar      1 <0>        -0.1110
      5 C5         -0.2080   -4.1595    1.0441 C.ar      1 <0>        -0.0870
      6 C6         -0.0972   -2.8777    0.5386 C.ar      1 <0>        -0.1086
      7 C7         -1.3376   -2.0710    0.2527 C.3       1 <0>         0.1614
      8 N1         -1.7708   -2.3133   -1.1256 N.am      1 <0>        -0.7294
      9 C8         -2.8671   -1.6938   -1.6063 C.2       1 <0>         0.4859
     10 O1         -3.4948   -0.9357   -0.8977 O.2       1 <0>        -0.5191
     11 C9         -3.3127   -1.9432   -3.0241 C.3       1 <0>         0.1156
     12 C10        -4.2002   -0.7868   -3.4904 C.3       1 <0>        -0.1067
     13 C11        -5.4091   -0.6677   -2.5571 C.3       1 <0>         0.1266
     14 N2         -6.0921   -1.9673   -2.4996 N.pl3     1 <0>        -0.6700
     15 C12        -5.3105   -3.1612   -2.1496 C.3       1 <0>         0.1492
     16 C13        -4.1027   -3.2524   -3.0875 C.3       1 <0>        -0.1201
     17 C14        -7.4520   -2.0654   -2.7709 C.ar      1 <0>         0.2675
     18 C15        -7.9108   -2.3004   -4.0633 C.ar      1 <0>        -0.2142
     19 C16        -9.2717   -2.3914   -4.2924 C.ar      1 <0>         0.1449
     20 N3        -10.1473   -2.2607   -3.3169 N.ar      1 <0>        -0.5069
     21 C17        -9.7714   -2.0353   -2.0629 C.ar      1 <0>         0.2899
     22 C18        -8.4053   -1.9363   -1.7488 C.ar      1 <0>        -0.1622
     23 C19        -8.3317   -1.6980   -0.3067 C.2       1 <0>        -0.1809
     24 C20        -9.5941   -1.6737    0.1486 C.2       1 <0>         0.0538
     25 N4        -10.4668   -1.8646   -0.8904 N.pl3     1 <0>        -0.5845
     26 H1        -11.4331   -1.8874   -0.8083 H         1 <0>         0.4192
     27 N5         -2.1355   -2.0392   -3.8974 N.3       1 <0>        -0.8293
     28 Cl1         3.6076   -5.2869    1.3932 Cl        1 <0>        -0.0634
     29 H2          1.2370   -1.3322   -0.0951 H         1 <0>         0.1340
     30 H3          3.2640   -2.6509    0.3678 H         1 <0>         0.1370
     31 H4          0.8426   -5.9013    1.7015 H         1 <0>         0.1371
     32 H5         -1.1834   -4.5828    1.2334 H         1 <0>         0.1345
     33 H6         -2.1300   -2.3671    0.9400 H         1 <0>         0.0798
     34 H7         -1.1199   -1.0110    0.3840 H         1 <0>         0.0793
     35 H8         -1.2687   -2.9197   -1.6923 H         1 <0>         0.3971
     36 H9         -3.6298    0.1417   -3.4673 H         1 <0>         0.0697
     37 H10        -4.5430   -0.9785   -4.5072 H         1 <0>         0.0798
     38 H11        -5.0737   -0.3868   -1.5587 H         1 <0>         0.1014
     39 H12        -6.0940    0.0883   -2.9410 H         1 <0>         0.0629
     40 H13        -4.9671   -3.0836   -1.1180 H         1 <0>         0.0509
     41 H14        -5.9304   -4.0504   -2.2645 H         1 <0>         0.0729
     42 H15        -4.4465   -3.4208   -4.1080 H         1 <0>         0.0886
     43 H16        -3.4630   -4.0787   -2.7775 H         1 <0>         0.0704
     44 H17        -7.2116   -2.4103   -4.8791 H         1 <0>         0.1354
     45 H18        -9.6254   -2.5739   -5.2963 H         1 <0>         0.1603
     46 H19        -7.4337   -1.5675    0.2789 H         1 <0>         0.1470
     47 H20        -9.8796   -1.5172    1.1784 H         1 <0>         0.1767
     48 H21        -1.5965   -1.1866   -3.8728 H         1 <0>         0.3485
     49 H22        -1.5657   -2.8344   -3.6502 H         1 <0>         0.3410
@<TRIPOS>BOND
     1    1    6 ar
     2    1    2 ar
     3    1   29 1
     4    2    3 ar
     5    2   30 1
     6    3    4 ar
     7    3   28 1
     8    4    5 ar
     9    4   31 1
    10    5    6 ar
    11    5   32 1
    12    6    7 1
    13    7    8 1
    14    7   33 1
    15    7   34 1
    16    8    9 am
    17    8   35 1
    18    9   10 2
    19    9   11 1
    20   11   16 1
    21   11   12 1
    22   11   27 1
    23   12   13 1
    24   12   36 1
    25   12   37 1
    26   13   14 1
    27   13   38 1
    28   13   39 1
    29   14   15 1
    30   14   17 1
    31   15   16 1
    32   15   40 1
    33   15   41 1
    34   16   42 1
    35   16   43 1
    36   17   22 ar
    37   17   18 ar
    38   18   19 ar
    39   18   44 1
    40   19   20 ar
    41   19   45 1
    42   20   21 ar
    43   21   25 1
    44   21   22 ar
    45   22   23 1
    46   23   24 2
    47   23   46 1
    48   24   25 1
    49   24   47 1
    50   25   26 1
    51   27   48 1
    52   27   49 1
@<TRIPOS>MOLECULE
CHEMBL599448
   50    53     0     0     0
SMALL
USER_CHARGES

@<TRIPOS>ATOM
      1 C1         -0.4501    1.6900    0.0910 C.ar      1 <0>        -0.0842
      2 C2          0.6204    2.5644    0.0909 C.ar      1 <0>        -0.1097
      3 C3          1.9125    2.0755    0.0163 C.ar      1 <0>        -0.0197
      4 C4          2.1323    0.7116   -0.0580 C.ar      1 <0>        -0.1110
      5 C5          1.0610   -0.1617   -0.0578 C.ar      1 <0>        -0.0876
      6 C6         -0.2298    0.3273    0.0166 C.ar      1 <0>        -0.1258
      7 C7         -1.3974   -0.6255    0.0173 C.3       1 <0>         0.1619
      8 N1         -1.8307   -0.8679   -1.3610 N.am      1 <0>        -0.7223
      9 C8         -2.8671   -1.6938   -1.6063 C.2       1 <0>         0.5026
     10 O1         -3.4410   -2.2364   -0.6859 O.2       1 <0>        -0.4616
     11 C9         -3.3127   -1.9432   -3.0241 C.3       1 <0>         0.0481
     12 C10        -4.2002   -0.7868   -3.4904 C.3       1 <0>        -0.1508
     13 C11        -5.4091   -0.6677   -2.5571 C.3       1 <0>         0.1492
     14 N2         -6.0921   -1.9673   -2.4996 N.pl3     1 <0>        -0.6658
     15 C12        -5.3105   -3.1612   -2.1496 C.3       1 <0>         0.1281
     16 C13        -4.1027   -3.2524   -3.0875 C.3       1 <0>        -0.1382
     17 C14        -7.4520   -2.0654   -2.7709 C.ar      1 <0>         0.2468
     18 C15        -7.9108   -2.3004   -4.0633 C.ar      1 <0>        -0.2097
     19 C16        -9.2717   -2.3914   -4.2924 C.ar      1 <0>         0.1453
     20 N3        -10.1473   -2.2607   -3.3169 N.ar      1 <0>        -0.4958
     21 C17        -9.7714   -2.0353   -2.0629 C.ar      1 <0>         0.2937
     22 C18        -8.4053   -1.9363   -1.7488 C.ar      1 <0>        -0.1574
     23 C19        -8.3317   -1.6980   -0.3067 C.2       1 <0>        -0.1915
     24 C20        -9.5941   -1.6737    0.1486 C.2       1 <0>         0.0688
     25 N4        -10.4668   -1.8646   -0.8904 N.pl3     1 <0>        -0.5810
     26 H1        -11.4331   -1.8874   -0.8083 H         1 <0>         0.4240
     27 N5         -2.1355   -2.0392   -3.8974 N.4       1 <0>        -0.6337
     28 Cl1         3.2575    3.1731    0.0155 Cl        1 <0>        -0.0507
     29 H2         -1.4586    2.0713    0.1537 H         1 <0>         0.1359
     30 H3          0.4482    3.6290    0.1486 H         1 <0>         0.1409
     31 H4          3.1407    0.3294   -0.1166 H         1 <0>         0.1403
     32 H5          1.2325   -1.2265   -0.1162 H         1 <0>         0.1345
     33 H6         -1.0969   -1.5681    0.4748 H         1 <0>         0.0920
     34 H7         -2.2200   -0.1917    0.5858 H         1 <0>         0.0919
     35 H8         -1.3716   -0.4339   -2.0971 H         1 <0>         0.3936
     36 H9         -3.6298    0.1417   -3.4673 H         1 <0>         0.0988
     37 H10        -4.5430   -0.9785   -4.5072 H         1 <0>         0.1078
     38 H11        -5.0737   -0.3868   -1.5587 H         1 <0>         0.0648
     39 H12        -6.0940    0.0883   -2.9410 H         1 <0>         0.0947
     40 H13        -4.9671   -3.0836   -1.1180 H         1 <0>         0.1100
     41 H14        -5.9304   -4.0504   -2.2645 H         1 <0>         0.0865
     42 H15        -4.4465   -3.4208   -4.1080 H         1 <0>         0.0998
     43 H16        -3.4630   -4.0787   -2.7775 H         1 <0>         0.0993
     44 H17        -7.2116   -2.4103   -4.8791 H         1 <0>         0.1326
     45 H18        -9.6254   -2.5739   -5.2963 H         1 <0>         0.1633
     46 H19        -7.4337   -1.5675    0.2789 H         1 <0>         0.1475
     47 H20        -9.8796   -1.5172    1.1784 H         1 <0>         0.1809
     48 H21        -1.5498   -2.8012   -3.5900 H         1 <0>         0.4396
     49 H22        -2.4337   -2.2062   -4.8468 H         1 <0>         0.4435
     50 H23        -1.6142   -1.1763   -3.8555 H         1 <0>         0.4299
@<TRIPOS>BOND
     1    1    6 ar
     2    1    2 ar
     3    1   29 1
     4    2    3 ar
     5    2   30 1
     6    3    4 ar
     7    3   28 1
     8    4    5 ar
     9    4   31 1
    10    5    6 ar
    11    5   32 1
    12    6    7 1
    13    7    8 1
    14    7   33 1
    15    7   34 1
    16    8    9 am
    17    8   35 1
    18    9   10 2
    19    9   11 1
    20   11   16 1
    21   11   12 1
    22   11   27 1
    23   12   13 1
    24   12   36 1
    25   12   37 1
    26   13   14 1
    27   13   38 1
    28   13   39 1
    29   14   15 1
    30   14   17 1
    31   15   16 1
    32   15   40 1
    33   15   41 1
    34   16   42 1
    35   16   43 1
    36   17   22 ar
    37   17   18 ar
    38   18   19 ar
    39   18   44 1
    40   19   20 ar
    41   19   45 1
    42   20   21 ar
    43   21   25 1
    44   21   22 ar
    45   22   23 1
    46   23   24 2
    47   23   46 1
    48   24   25 1
    49   24   47 1
    50   25   26 1
    51   27   48 1
    52   27   49 1
    53   27   50 1
@<TRIPOS>MOLECULE
CHEMBL448926
   76    83     0     0     0
SMALL
USER_CHARGES

@<TRIPOS>ATOM
      1 C1         -0.0167    1.3791    0.0096 C.ar      1 <0>        -0.1065
      2 C2          1.1686    2.0924    0.0021 C.ar      1 <0>        -0.1113
      3 C3          2.3774    1.4269   -0.0135 C.ar      1 <0>        -0.1015
      4 C4          2.4026    0.0330   -0.0212 C.ar      1 <0>        -0.0539
      5 C5          1.2049   -0.6804   -0.0131 C.ar      1 <0>        -0.0983
      6 C6          0.0021   -0.0041    0.0020 C.ar      1 <0>        -0.1210
      7 C7          3.6978   -0.6877   -0.0384 C.ar      1 <0>        -0.1047
      8 C8          4.6761   -0.3464   -0.9605 C.ar      1 <0>         0.0118
      9 C9          5.8839   -1.0606   -0.9333 C.ar      1 <0>        -0.2347
     10 C10         6.9317   -0.7833   -1.8294 C.ar      1 <0>         0.2604
     11 N1          8.0365   -1.4960   -1.7432 N.ar      1 <0>        -0.5278
     12 C11         8.1720   -2.4582   -0.8351 C.ar      1 <0>         0.5817
     13 N2          7.2256   -2.7619    0.0290 N.ar      1 <0>        -0.5151
     14 C12         6.0637   -2.0952    0.0233 C.ar      1 <0>         0.3817
     15 N3          5.0920   -2.3845    0.8882 N.ar      1 <0>        -0.4568
     16 C13         3.9489   -1.7243    0.8878 C.ar      1 <0>         0.2546
     17 C14         2.9049   -2.0822    1.8757 C.ar      1 <0>        -0.0250
     18 C15         2.0780   -1.0940    2.4096 C.ar      1 <0>        -0.0749
     19 C16         1.1073   -1.4336    3.3295 C.ar      1 <0>        -0.1016
     20 C17         0.9533   -2.7511    3.7224 C.ar      1 <0>        -0.1424
     21 C18         1.7707   -3.7357    3.1967 C.ar      1 <0>        -0.0973
     22 C19         2.7410   -3.4095    2.2714 C.ar      1 <0>        -0.0668
     23 C20        -0.1089   -3.1152    4.7276 C.3       1 <0>         0.0419
     24 N4         -1.3588   -3.4347    4.0251 N.4       1 <0>        -0.3836
     25 C21        -1.8546   -2.2342    3.3413 C.3       1 <0>        -0.0115
     26 C22        -3.1124   -2.5808    2.5418 C.3       1 <0>        -0.1379
     27 C23        -4.1882   -3.1075    3.4960 C.3       1 <0>         0.0022
     28 C24        -3.6338   -4.3147    4.2580 C.3       1 <0>        -0.1403
     29 C25        -2.3567   -3.9039    4.9939 C.3       1 <0>        -0.0033
     30 C26        -5.4021   -3.5242    2.7062 C.2       1 <0>         0.2195
     31 N5         -6.6223   -3.0154    2.8441 N.2       1 <0>        -0.5190
     32 H1         -7.0775   -5.1038    0.6044 H         1 <0>         0.4544
     33 C27        -7.4477   -3.6018    2.0015 C.2       1 <0>         0.3522
     34 N6         -6.7408   -4.5160    1.2987 N.pl3     1 <0>        -0.4476
     35 N7         -5.4208   -4.4403    1.7721 N.2       1 <0>        -0.3002
     36 C28        -8.8916   -3.3125    1.8512 C.ar      1 <0>         0.1601
     37 C29        -9.4872   -2.3337    2.6459 C.ar      1 <0>        -0.1102
     38 C30       -10.8382   -2.0743    2.4933 C.ar      1 <0>        -0.0738
     39 C31       -11.5503   -2.8024    1.5507 C.ar      1 <0>        -0.1433
     40 C32       -10.8957   -3.7591    0.7960 C.ar      1 <0>         0.1096
     41 N8         -9.6080   -3.9832    0.9572 N.ar      1 <0>        -0.4749
     42 N9          9.3656   -3.1756   -0.7966 N.pl3     1 <0>        -0.4108
     43 C33        10.4547   -2.9931   -1.6120 C.2       1 <0>        -0.0282
     44 C34        11.3803   -3.8933   -1.2327 C.2       1 <0>        -0.0129
     45 N10        10.8779   -4.6092   -0.2150 N.2       1 <0>        -0.4735
     46 C35         9.6751   -4.1861    0.0600 C.2       1 <0>         0.2276
     47 H2         -0.9603    1.9042    0.0260 H         1 <0>         0.1272
     48 H3          1.1478    3.1722    0.0082 H         1 <0>         0.1311
     49 H4          3.3021    1.9848   -0.0200 H         1 <0>         0.1290
     50 H5          1.2183   -1.7603   -0.0194 H         1 <0>         0.1211
     51 H6         -0.9264   -0.5557    0.0079 H         1 <0>         0.1236
     52 H7          4.5133    0.4445   -1.6776 H         1 <0>         0.1617
     53 H8          6.8329   -0.0046   -2.5712 H         1 <0>         0.1979
     54 H9          2.1975   -0.0651    2.1039 H         1 <0>         0.1449
     55 H10         0.4666   -0.6693    3.7440 H         1 <0>         0.1373
     56 H11         1.6462   -4.7624    3.5078 H         1 <0>         0.1379
     57 H12         3.3751   -4.1797    1.8579 H         1 <0>         0.1439
     58 H13         0.2167   -3.9823    5.3023 H         1 <0>         0.1402
     59 H14        -0.2752   -2.2745    5.4011 H         1 <0>         0.1388
     60 H15        -2.0933   -1.4686    4.0795 H         1 <0>         0.1335
     61 H16        -1.0867   -1.8586    2.6649 H         1 <0>         0.1361
     62 H17        -3.4800   -1.6878    2.0363 H         1 <0>         0.1153
     63 H18        -2.8748   -3.3462    1.8030 H         1 <0>         0.0961
     64 H19        -4.4630   -2.3249    4.2032 H         1 <0>         0.1176
     65 H20        -4.3741   -4.6611    4.9792 H         1 <0>         0.1167
     66 H21        -3.4070   -5.1161    3.5549 H         1 <0>         0.0967
     67 H22        -1.9595   -4.7610    5.5376 H         1 <0>         0.1363
     68 H23        -2.5847   -3.1027    5.6969 H         1 <0>         0.1342
     69 H24        -8.9027   -1.7860    3.3703 H         1 <0>         0.1515
     70 H25       -11.3273   -1.3223    3.0947 H         1 <0>         0.1489
     71 H26       -12.6058   -2.6239    1.4079 H         1 <0>         0.1482
     72 H27       -11.4474   -4.3275    0.0619 H         1 <0>         0.1700
     73 H28        10.5503   -2.2668   -2.4055 H         1 <0>         0.1897
     74 H29        12.3590   -4.0182   -1.6720 H         1 <0>         0.1849
     75 H30         9.0320   -4.5744    0.8359 H         1 <0>         0.2188
     76 H31        -1.1854   -4.1593    3.3447 H         1 <0>         0.4237
@<TRIPOS>BOND
     1    1    6 ar
     2    1    2 ar
     3    1   47 1
     4    2    3 ar
     5    2   48 1
     6    3    4 ar
     7    3   49 1
     8    4    5 ar
     9    4    7 1
    10    5    6 ar
    11    5   50 1
    12    6   51 1
    13    7   16 ar
    14    7    8 ar
    15    8    9 ar
    16    8   52 1
    17    9   14 ar
    18    9   10 ar
    19   10   11 ar
    20   10   53 1
    21   11   12 ar
    22   12   13 ar
    23   12   42 1
    24   13   14 ar
    25   14   15 ar
    26   15   16 ar
    27   16   17 1
    28   17   22 ar
    29   17   18 ar
    30   18   19 ar
    31   18   54 1
    32   19   20 ar
    33   19   55 1
    34   20   21 ar
    35   20   23 1
    36   21   22 ar
    37   21   56 1
    38   22   57 1
    39   23   24 1
    40   23   58 1
    41   23   59 1
    42   24   29 1
    43   24   25 1
    44   24   76 1
    45   25   26 1
    46   25   60 1
    47   25   61 1
    48   26   27 1
    49   26   62 1
    50   26   63 1
    51   27   28 1
    52   27   64 1
    53   27   30 1
    54   28   29 1
    55   28   65 1
    56   28   66 1
    57   29   67 1
    58   29   68 1
    59   30   31 1
    60   30   35 2
    61   31   33 2
    62   32   34 1
    63   33   36 1
    64   33   34 1
    65   34   35 1
    66   36   41 ar
    67   36   37 ar
    68   37   38 ar
    69   37   69 1
    70   38   39 ar
    71   38   70 1
    72   39   40 ar
    73   39   71 1
    74   40   41 ar
    75   40   72 1
    76   42   46 1
    77   42   43 1
    78   43   44 2
    79   43   73 1
    80   44   45 1
    81   44   74 1
    82   45   46 2
    83   46   75 1
@<TRIPOS>MOLECULE
CHEMBL448926
   76    83     0     0     0
SMALL
USER_CHARGES

@<TRIPOS>ATOM
      1 C1         -0.0167    1.3791    0.0096 C.ar      1 <0>        -0.1058
      2 C2          1.1686    2.0924    0.0021 C.ar      1 <0>        -0.1107
      3 C3          2.3774    1.4269   -0.0135 C.ar      1 <0>        -0.1012
      4 C4          2.4026    0.0330   -0.0212 C.ar      1 <0>        -0.0542
      5 C5          1.2049   -0.6804   -0.0131 C.ar      1 <0>        -0.0993
      6 C6          0.0021   -0.0041    0.0020 C.ar      1 <0>        -0.1213
      7 C7          3.6978   -0.6877   -0.0384 C.ar      1 <0>        -0.1049
      8 C8          4.6761   -0.3464   -0.9605 C.ar      1 <0>         0.0122
      9 C9          5.8839   -1.0606   -0.9333 C.ar      1 <0>        -0.2345
     10 C10         6.9317   -0.7833   -1.8294 C.ar      1 <0>         0.2606
     11 N1          8.0365   -1.4960   -1.7432 N.ar      1 <0>        -0.5275
     12 C11         8.1720   -2.4582   -0.8351 C.ar      1 <0>         0.5822
     13 N2          7.2256   -2.7619    0.0290 N.ar      1 <0>        -0.5153
     14 C12         6.0637   -2.0952    0.0233 C.ar      1 <0>         0.3817
     15 N3          5.0920   -2.3845    0.8882 N.ar      1 <0>        -0.4567
     16 C13         3.9489   -1.7243    0.8878 C.ar      1 <0>         0.2533
     17 C14         2.9049   -2.0822    1.8757 C.ar      1 <0>        -0.0230
     18 C15         2.0780   -1.0940    2.4096 C.ar      1 <0>        -0.0744
     19 C16         1.1073   -1.4336    3.3295 C.ar      1 <0>        -0.1014
     20 C17         0.9533   -2.7511    3.7224 C.ar      1 <0>        -0.1446
     21 C18         1.7707   -3.7357    3.1967 C.ar      1 <0>        -0.0976
     22 C19         2.7410   -3.4095    2.2714 C.ar      1 <0>        -0.0673
     23 C20        -0.1089   -3.1152    4.7276 C.3       1 <0>         0.0422
     24 N4         -1.3588   -3.4347    4.0251 N.4       1 <0>        -0.3846
     25 C21        -1.8546   -2.2342    3.3413 C.3       1 <0>        -0.0126
     26 C22        -3.1124   -2.5808    2.5418 C.3       1 <0>        -0.1384
     27 C23        -4.1882   -3.1075    3.4960 C.3       1 <0>        -0.0160
     28 C24        -3.6338   -4.3147    4.2580 C.3       1 <0>        -0.1492
     29 C25        -2.3567   -3.9039    4.9939 C.3       1 <0>        -0.0022
     30 C26        -5.4021   -3.5242    2.7062 C.2       1 <0>         0.2709
     31 N5         -6.4553   -2.7864    2.4757 N.2       1 <0>        -0.4883
     32 H1         -4.9670   -5.4660    2.1117 H         1 <0>         0.4404
     33 C27        -7.3396   -3.4749    1.7412 C.2       1 <0>         0.2884
     34 N6         -6.8463   -4.6695    1.4979 N.2       1 <0>        -0.2778
     35 N7         -5.5845   -4.7180    2.1126 N.pl3     1 <0>        -0.4754
     36 C28        -8.6571   -2.9729    1.2793 C.ar      1 <0>         0.1845
     37 C29        -9.4850   -3.7998    0.5230 C.ar      1 <0>        -0.1315
     38 C30       -10.7113   -3.3178    0.0997 C.ar      1 <0>        -0.0745
     39 C31       -11.0699   -2.0228    0.4470 C.ar      1 <0>        -0.1508
     40 C32       -10.1992   -1.2571    1.1999 C.ar      1 <0>         0.1034
     41 N8         -9.0394   -1.7424    1.5944 N.ar      1 <0>        -0.4470
     42 N9          9.3656   -3.1756   -0.7966 N.pl3     1 <0>        -0.4109
     43 C33        10.4547   -2.9931   -1.6120 C.2       1 <0>        -0.0281
     44 C34        11.3803   -3.8933   -1.2327 C.2       1 <0>        -0.0127
     45 N10        10.8779   -4.6092   -0.2150 N.2       1 <0>        -0.4733
     46 C35         9.6751   -4.1861    0.0600 C.2       1 <0>         0.2274
     47 H2         -0.9603    1.9042    0.0260 H         1 <0>         0.1280
     48 H3          1.1478    3.1722    0.0082 H         1 <0>         0.1316
     49 H4          3.3021    1.9848   -0.0200 H         1 <0>         0.1292
     50 H5          1.2183   -1.7603   -0.0194 H         1 <0>         0.1204
     51 H6         -0.9264   -0.5557    0.0079 H         1 <0>         0.1232
     52 H7          4.5133    0.4445   -1.6776 H         1 <0>         0.1619
     53 H8          6.8329   -0.0046   -2.5712 H         1 <0>         0.1982
     54 H9          2.1975   -0.0651    2.1039 H         1 <0>         0.1455
     55 H10         0.4666   -0.6693    3.7440 H         1 <0>         0.1378
     56 H11         1.6462   -4.7624    3.5078 H         1 <0>         0.1375
     57 H12         3.3751   -4.1797    1.8579 H         1 <0>         0.1440
     58 H13         0.2167   -3.9823    5.3023 H         1 <0>         0.1410
     59 H14        -0.2752   -2.2745    5.4011 H         1 <0>         0.1400
     60 H15        -2.0933   -1.4686    4.0795 H         1 <0>         0.1371
     61 H16        -1.0867   -1.8586    2.6649 H         1 <0>         0.1390
     62 H17        -3.4800   -1.6878    2.0363 H         1 <0>         0.1246
     63 H18        -2.8748   -3.3462    1.8030 H         1 <0>         0.0899
     64 H19        -4.4630   -2.3249    4.2032 H         1 <0>         0.1307
     65 H20        -4.3741   -4.6611    4.9792 H         1 <0>         0.1237
     66 H21        -3.4070   -5.1161    3.5549 H         1 <0>         0.0883
     67 H22        -1.9595   -4.7610    5.5376 H         1 <0>         0.1394
     68 H23        -2.5847   -3.1027    5.6969 H         1 <0>         0.1380
     69 H24        -9.1741   -4.8028    0.2704 H         1 <0>         0.1436
     70 H25       -11.3743   -3.9354   -0.4881 H         1 <0>         0.1456
     71 H26       -12.0198   -1.6170    0.1319 H         1 <0>         0.1450
     72 H27       -10.4751   -0.2490    1.4719 H         1 <0>         0.1668
     73 H28        10.5503   -2.2668   -2.4055 H         1 <0>         0.1899
     74 H29        12.3590   -4.0182   -1.6720 H         1 <0>         0.1851
     75 H30         9.0320   -4.5744    0.8359 H         1 <0>         0.2187
     76 H31        -1.1854   -4.1593    3.3447 H         1 <0>         0.4223
@<TRIPOS>BOND
     1    1    6 ar
     2    1    2 ar
     3    1   47 1
     4    2    3 ar
     5    2   48 1
     6    3    4 ar
     7    3   49 1
     8    4    5 ar
     9    4    7 1
    10    5    6 ar
    11    5   50 1
    12    6   51 1
    13    7   16 ar
    14    7    8 ar
    15    8    9 ar
    16    8   52 1
    17    9   14 ar
    18    9   10 ar
    19   10   11 ar
    20   10   53 1
    21   11   12 ar
    22   12   13 ar
    23   12   42 1
    24   13   14 ar
    25   14   15 ar
    26   15   16 ar
    27   16   17 1
    28   17   22 ar
    29   17   18 ar
    30   18   19 ar
    31   18   54 1
    32   19   20 ar
    33   19   55 1
    34   20   21 ar
    35   20   23 1
    36   21   22 ar
    37   21   56 1
    38   22   57 1
    39   23   24 1
    40   23   58 1
    41   23   59 1
    42   24   29 1
    43   24   25 1
    44   24   76 1
    45   25   26 1
    46   25   60 1
    47   25   61 1
    48   26   27 1
    49   26   62 1
    50   26   63 1
    51   27   28 1
    52   27   64 1
    53   27   30 1
    54   28   29 1
    55   28   65 1
    56   28   66 1
    57   29   67 1
    58   29   68 1
    59   30   31 2
    60   30   35 1
    61   31   33 1
    62   32   35 1
    63   33   36 1
    64   33   34 2
    65   34   35 1
    66   36   41 ar
    67   36   37 ar
    68   37   38 ar
    69   37   69 1
    70   38   39 ar
    71   38   70 1
    72   39   40 ar
    73   39   71 1
    74   40   41 ar
    75   40   72 1
    76   42   46 1
    77   42   43 1
    78   43   44 2
    79   43   73 1
    80   44   45 1
    81   44   74 1
    82   45   46 2
    83   46   75 1
@<TRIPOS>MOLECULE
CHEMBL523586
   48    51     0     0     0
SMALL
USER_CHARGES

@<TRIPOS>ATOM
      1 C1          0.3742    1.8563   -0.3947 C.ar      1 <0>        -0.0820
      2 C2          1.5655    2.5384   -0.2295 C.ar      1 <0>        -0.1253
      3 C3          2.7614    1.8459   -0.2007 C.ar      1 <0>        -0.0734
      4 C4          2.7677    0.4705   -0.3374 C.ar      1 <0>        -0.1477
      5 C5          1.5755   -0.2135   -0.5029 C.ar      1 <0>         0.1090
      6 C6          0.3780    0.4813   -0.5312 C.ar      1 <0>        -0.1453
      7 F1          1.5804   -1.5578   -0.6371 F         1 <0>        -0.1323
      8 C7          4.0590    2.5908   -0.0206 C.3       1 <0>        -0.0838
      9 C8          4.3812    2.7006    1.4710 C.3       1 <0>         0.1217
     10 H1          4.3860    1.7056    1.9159 H         1 <0>         0.1245
     11 C9          5.7571    3.3456    1.6494 C.3       1 <0>        -0.0222
     12 N1          6.0155    3.5605    3.0795 N.4       1 <0>        -0.6348
     13 N2          3.3660    3.5256    2.1305 N.am      1 <0>        -0.7308
     14 C10         3.1241    3.3719    3.4475 C.2       1 <0>         0.6127
     15 O1          3.7492    2.5477    4.0889 O.2       1 <0>        -0.5334
     16 C11         2.1084    4.1972    4.1073 C.2       1 <0>        -0.2765
     17 C12         1.7166    4.1988    5.4384 C.2       1 <0>        -0.0193
     18 C13         0.7374    5.0665    5.8334 C.2       1 <0>        -0.1492
     19 C14         0.1742    5.9112    4.8877 C.2       1 <0>        -0.0142
     20 S1          1.0638    5.4636    3.4060 S.3       1 <0>         0.1722
     21 C15        -0.8841    6.9231    5.0627 C.ar      1 <0>         0.0347
     22 C16        -0.8339    7.8477    6.1104 C.ar      1 <0>        -0.1479
     23 C17        -1.8473    8.7790    6.2372 C.ar      1 <0>         0.1417
     24 N3         -2.8611    8.8195    5.3972 N.ar      1 <0>        -0.4753
     25 C18        -2.9688    7.9716    4.3826 C.ar      1 <0>         0.2910
     26 C19        -1.9774    6.9948    4.1763 C.ar      1 <0>        -0.1239
     27 C20        -2.3832    6.2417    2.9926 C.2       1 <0>        -0.2115
     28 C21        -3.5377    6.7805    2.5641 C.2       1 <0>         0.0888
     29 N4         -3.9054    7.8085    3.3896 N.pl3     1 <0>        -0.5767
     30 H2         -4.7029    8.3502    3.2824 H         1 <0>         0.4275
     31 Br1         0.1609    5.1146    7.6337 Br        1 <0>         0.0017
     32 H3         -0.5600    2.3979   -0.4126 H         1 <0>         0.1383
     33 H4          1.5617    3.6132   -0.1233 H         1 <0>         0.1255
     34 H5          3.7022   -0.0703   -0.3156 H         1 <0>         0.1375
     35 H6         -0.5527   -0.0513   -0.6599 H         1 <0>         0.1410
     36 H7          4.8603    2.0524   -0.5268 H         1 <0>         0.1097
     37 H8          3.9667    3.5897   -0.4469 H         1 <0>         0.0977
     38 H9          6.5227    2.6886    1.2367 H         1 <0>         0.1521
     39 H10         5.7801    4.3026    1.1282 H         1 <0>         0.1404
     40 H11         5.9942    2.6746    3.5620 H         1 <0>         0.4430
     41 H12         6.9229    3.9858    3.1971 H         1 <0>         0.4376
     42 H13         2.8678    4.1824    1.6194 H         1 <0>         0.4147
     43 H14         2.1762    3.5272    6.1484 H         1 <0>         0.1600
     44 H15        -0.0133    7.8341    6.8124 H         1 <0>         0.1462
     45 H16        -1.8070    9.4925    7.0470 H         1 <0>         0.1736
     46 H17        -1.8562    5.4112    2.5466 H         1 <0>         0.1500
     47 H18        -4.0968    6.4457    1.7029 H         1 <0>         0.1860
     48 H19         5.3068    4.1687    3.4616 H         1 <0>         0.4268
@<TRIPOS>BOND
     1    1    6 ar
     2    1    2 ar
     3    1   32 1
     4    2    3 ar
     5    2   33 1
     6    3    4 ar
     7    3    8 1
     8    4    5 ar
     9    4   34 1
    10    5    6 ar
    11    5    7 1
    12    6   35 1
    13    8    9 1
    14    8   36 1
    15    8   37 1
    16    9   10 1
    17    9   11 1
    18    9   13 1
    19   11   12 1
    20   11   38 1
    21   11   39 1
    22   12   40 1
    23   12   41 1
    24   12   48 1
    25   13   14 am
    26   13   42 1
    27   14   15 2
    28   14   16 1
    29   16   20 1
    30   16   17 2
    31   17   18 1
    32   17   43 1
    33   18   19 2
    34   18   31 1
    35   19   20 1
    36   19   21 1
    37   21   26 ar
    38   21   22 ar
    39   22   23 ar
    40   22   44 1
    41   23   24 ar
    42   23   45 1
    43   24   25 ar
    44   25   29 1
    45   25   26 ar
    46   26   27 1
    47   27   28 2
    48   27   46 1
    49   28   29 1
    50   28   47 1
    51   29   30 1
@<TRIPOS>MOLECULE
CHEMBL506077
   74    81     0     0     0
SMALL
USER_CHARGES

@<TRIPOS>ATOM
      1 C1         -0.0167    1.3792    0.0096 C.ar      1 <0>        -0.1075
      2 C2          1.1686    2.0926    0.0021 C.ar      1 <0>        -0.1117
      3 C3          2.3774    1.4273   -0.0130 C.ar      1 <0>        -0.1007
      4 C4          2.4027    0.0331   -0.0207 C.ar      1 <0>        -0.0531
      5 C5          1.2048   -0.6804   -0.0131 C.ar      1 <0>        -0.0979
      6 C6          0.0021   -0.0041    0.0020 C.ar      1 <0>        -0.1222
      7 C7          3.6976   -0.6873   -0.0375 C.ar      1 <0>        -0.0880
      8 C8          4.6832   -0.3453   -0.9637 C.ar      1 <0>        -0.0036
      9 C9          5.8807   -1.0537   -0.9352 C.ar      1 <0>        -0.0814
     10 C10         6.0621   -2.0835    0.0163 C.ar      1 <0>         0.2092
     11 C11         7.3365   -2.8113    0.0182 C.2       1 <0>        -0.1555
     12 C12         8.2922   -2.4985   -0.8622 C.2       1 <0>         0.1448
     13 N1          8.1430   -1.5000   -1.7996 N.am      1 <0>        -0.4928
     14 C13         6.9753   -0.7619   -1.8753 C.2       1 <0>         0.3091
     15 N2          7.0941    0.1108   -2.8403 N.2       1 <0>        -0.2484
     16 N3          8.3615   -0.0506   -3.4156 N.am      1 <0>        -0.5284
     17 C14         8.9833   -1.0478   -2.7556 C.2       1 <0>         0.6564
     18 O1         10.1052   -1.4664   -2.9807 O.2       1 <0>        -0.5215
     19 N4          5.0992   -2.3771    0.8804 N.ar      1 <0>        -0.4537
     20 C15         3.9492   -1.7199    0.8843 C.ar      1 <0>         0.1961
     21 C16         2.9074   -2.0823    1.8731 C.ar      1 <0>        -0.0139
     22 C17         2.0785   -1.0974    2.4096 C.ar      1 <0>        -0.0803
     23 C18         1.1099   -1.4411    3.3303 C.ar      1 <0>        -0.1003
     24 C19         0.9603   -2.7596    3.7214 C.ar      1 <0>        -0.1480
     25 C20         1.7795   -3.7411    3.1928 C.ar      1 <0>        -0.0969
     26 C21         2.7478   -3.4106    2.2670 C.ar      1 <0>        -0.0736
     27 C22        -0.0992   -3.1282    4.7278 C.3       1 <0>         0.0426
     28 N5         -1.3495   -3.4500    4.0270 N.4       1 <0>        -0.3835
     29 C23        -1.8497   -2.2499    3.3459 C.3       1 <0>        -0.0113
     30 C24        -3.1080   -2.5987    2.5480 C.3       1 <0>        -0.1379
     31 C25        -4.1806   -3.1299    3.5032 C.3       1 <0>         0.0021
     32 C26        -3.6216   -4.3367    4.2624 C.3       1 <0>        -0.1402
     33 C27        -2.3444   -3.9235    4.9968 C.3       1 <0>        -0.0033
     34 C28        -5.3947   -3.5488    2.7149 C.2       1 <0>         0.2197
     35 N6         -6.6150   -3.0398    2.8520 N.2       1 <0>        -0.5190
     36 C29        -7.4406   -3.6284    2.0111 C.2       1 <0>         0.3521
     37 N7         -6.7338   -4.5442    1.3102 N.pl3     1 <0>        -0.4477
     38 H1         -7.0706   -5.1337    0.6175 H         1 <0>         0.4543
     39 N8         -5.4136   -4.4671    1.7830 N.2       1 <0>        -0.3001
     40 C30        -8.8845   -3.3398    1.8606 C.ar      1 <0>         0.1603
     41 C31        -9.4801   -2.3591    2.6531 C.ar      1 <0>        -0.1102
     42 C32       -10.8312   -2.1003    2.5003 C.ar      1 <0>        -0.0738
     43 C33       -11.5435   -2.8308    1.5597 C.ar      1 <0>        -0.1434
     44 C34       -10.8889   -3.7893    0.8072 C.ar      1 <0>         0.1095
     45 N9         -9.6011   -4.0127    0.9684 N.ar      1 <0>        -0.4750
     46 H2         -0.9603    1.9042    0.0260 H         1 <0>         0.1264
     47 H3          1.1477    3.1723    0.0078 H         1 <0>         0.1305
     48 H4          3.3021    1.9852   -0.0192 H         1 <0>         0.1292
     49 H5          1.2182   -1.7603   -0.0191 H         1 <0>         0.1210
     50 H6         -0.9264   -0.5557    0.0083 H         1 <0>         0.1228
     51 H7          4.5215    0.4452   -1.6816 H         1 <0>         0.1595
     52 H8          7.5029   -3.6026    0.7341 H         1 <0>         0.1728
     53 H9          9.2198   -3.0510   -0.8374 H         1 <0>         0.1805
     54 H10         2.1946   -0.0677    2.1053 H         1 <0>         0.1437
     55 H11         0.4676   -0.6792    3.7467 H         1 <0>         0.1354
     56 H12         1.6579   -4.7688    3.5020 H         1 <0>         0.1359
     57 H13         3.3839   -4.1783    1.8517 H         1 <0>         0.1429
     58 H14         0.2298   -3.9953    5.3006 H         1 <0>         0.1392
     59 H15        -0.2667   -2.2890    5.4029 H         1 <0>         0.1377
     60 H16        -2.0893   -1.4861    4.0857 H         1 <0>         0.1331
     61 H17        -1.0841   -1.8712    2.6688 H         1 <0>         0.1365
     62 H18        -3.4789   -1.7059    2.0445 H         1 <0>         0.1152
     63 H19        -2.8695   -3.3623    1.8077 H         1 <0>         0.0961
     64 H20        -4.4564   -2.3492    4.2121 H         1 <0>         0.1175
     65 H21        -4.3597   -4.6863    4.9844 H         1 <0>         0.1164
     66 H22        -3.3938   -5.1364    3.5577 H         1 <0>         0.0967
     67 H23        -1.9439   -4.7804    5.5385 H         1 <0>         0.1360
     68 H24        -2.5734   -3.1240    5.7014 H         1 <0>         0.1338
     69 H25        -8.8955   -1.8096    3.3760 H         1 <0>         0.1515
     70 H26       -11.3203   -1.3470    3.1001 H         1 <0>         0.1489
     71 H27       -12.5991   -2.6529    1.4168 H         1 <0>         0.1481
     72 H28       -11.4408   -4.3596    0.0746 H         1 <0>         0.1699
     73 H29         8.7254    0.4622   -4.1541 H         1 <0>         0.4678
     74 H30        -1.1752   -4.1732    3.3452 H         1 <0>         0.4235
@<TRIPOS>BOND
     1    1    6 ar
     2    1    2 ar
     3    1   46 1
     4    2    3 ar
     5    2   47 1
     6    3    4 ar
     7    3   48 1
     8    4    5 ar
     9    4    7 1
    10    5    6 ar
    11    5   49 1
    12    6   50 1
    13    7   20 ar
    14    7    8 ar
    15    8    9 ar
    16    8   51 1
    17    9   14 1
    18    9   10 ar
    19   10   11 1
    20   10   19 ar
    21   11   12 2
    22   11   52 1
    23   12   13 1
    24   12   53 1
    25   13   17 am
    26   13   14 1
    27   14   15 2
    28   15   16 1
    29   16   17 am
    30   16   73 1
    31   17   18 2
    32   19   20 ar
    33   20   21 1
    34   21   26 ar
    35   21   22 ar
    36   22   23 ar
    37   22   54 1
    38   23   24 ar
    39   23   55 1
    40   24   25 ar
    41   24   27 1
    42   25   26 ar
    43   25   56 1
    44   26   57 1
    45   27   28 1
    46   27   58 1
    47   27   59 1
    48   28   33 1
    49   28   29 1
    50   28   74 1
    51   29   30 1
    52   29   60 1
    53   29   61 1
    54   30   31 1
    55   30   62 1
    56   30   63 1
    57   31   32 1
    58   31   34 1
    59   31   64 1
    60   32   33 1
    61   32   65 1
    62   32   66 1
    63   33   67 1
    64   33   68 1
    65   34   39 2
    66   34   35 1
    67   35   36 2
    68   36   37 1
    69   36   40 1
    70   37   38 1
    71   37   39 1
    72   40   45 ar
    73   40   41 ar
    74   41   42 ar
    75   41   69 1
    76   42   43 ar
    77   42   70 1
    78   43   44 ar
    79   43   71 1
    80   44   45 ar
    81   44   72 1
@<TRIPOS>MOLECULE
CHEMBL506077
   74    81     0     0     0
SMALL
USER_CHARGES

@<TRIPOS>ATOM
      1 C1         -0.0167    1.3792    0.0096 C.ar      1 <0>        -0.1068
      2 C2          1.1686    2.0926    0.0021 C.ar      1 <0>        -0.1112
      3 C3          2.3774    1.4273   -0.0130 C.ar      1 <0>        -0.1004
      4 C4          2.4027    0.0331   -0.0207 C.ar      1 <0>        -0.0536
      5 C5          1.2048   -0.6804   -0.0131 C.ar      1 <0>        -0.0988
      6 C6          0.0021   -0.0041    0.0020 C.ar      1 <0>        -0.1225
      7 C7          3.6976   -0.6873   -0.0375 C.ar      1 <0>        -0.0876
      8 C8          4.6832   -0.3453   -0.9637 C.ar      1 <0>        -0.0037
      9 C9          5.8807   -1.0537   -0.9352 C.ar      1 <0>        -0.0805
     10 C10         6.0621   -2.0835    0.0163 C.ar      1 <0>         0.2093
     11 C11         7.3365   -2.8113    0.0182 C.2       1 <0>        -0.1562
     12 C12         8.2922   -2.4985   -0.8622 C.2       1 <0>         0.1455
     13 N1          8.1430   -1.5000   -1.7996 N.am      1 <0>        -0.4929
     14 C13         6.9753   -0.7619   -1.8753 C.2       1 <0>         0.3085
     15 N2          7.0941    0.1108   -2.8403 N.2       1 <0>        -0.2477
     16 N3          8.3615   -0.0506   -3.4156 N.am      1 <0>        -0.5282
     17 C14         8.9833   -1.0478   -2.7556 C.2       1 <0>         0.6564
     18 O1         10.1052   -1.4664   -2.9807 O.2       1 <0>        -0.5210
     19 N4          5.0992   -2.3771    0.8804 N.ar      1 <0>        -0.4536
     20 C15         3.9492   -1.7199    0.8843 C.ar      1 <0>         0.1946
     21 C16         2.9074   -2.0823    1.8731 C.ar      1 <0>        -0.0119
     22 C17         2.0785   -1.0974    2.4096 C.ar      1 <0>        -0.0799
     23 C18         1.1099   -1.4411    3.3303 C.ar      1 <0>        -0.1000
     24 C19         0.9603   -2.7596    3.7214 C.ar      1 <0>        -0.1501
     25 C20         1.7795   -3.7411    3.1928 C.ar      1 <0>        -0.0972
     26 C21         2.7478   -3.4106    2.2670 C.ar      1 <0>        -0.0741
     27 C22        -0.0992   -3.1282    4.7278 C.3       1 <0>         0.0429
     28 N5         -1.3495   -3.4500    4.0270 N.4       1 <0>        -0.3844
     29 C23        -1.8497   -2.2499    3.3459 C.3       1 <0>        -0.0124
     30 C24        -3.1080   -2.5987    2.5480 C.3       1 <0>        -0.1383
     31 C25        -4.1806   -3.1299    3.5032 C.3       1 <0>        -0.0161
     32 C26        -3.6216   -4.3367    4.2624 C.3       1 <0>        -0.1491
     33 C27        -2.3444   -3.9235    4.9968 C.3       1 <0>        -0.0022
     34 C28        -5.3947   -3.5488    2.7149 C.2       1 <0>         0.2710
     35 N6         -6.4504   -2.8135    2.4873 N.2       1 <0>        -0.4884
     36 C29        -7.3340   -3.5033    1.7532 C.2       1 <0>         0.2884
     37 N7         -6.8378   -4.6961    1.5073 N.2       1 <0>        -0.2780
     38 H1         -4.9550   -5.4882    2.1161 H         1 <0>         0.4404
     39 N8         -5.5749   -4.7421    2.1197 N.pl3     1 <0>        -0.4753
     40 C30        -8.6537   -3.0042    1.2944 C.ar      1 <0>         0.1847
     41 C31        -9.4806   -3.8323    0.5382 C.ar      1 <0>        -0.1316
     42 C32       -10.7090   -3.3530    0.1177 C.ar      1 <0>        -0.0745
     43 C33       -11.0705   -2.0596    0.4677 C.ar      1 <0>        -0.1509
     44 C34       -10.2007   -1.2926    1.2202 C.ar      1 <0>         0.1034
     45 N9         -9.0389   -1.7753    1.6120 N.ar      1 <0>        -0.4471
     46 H2         -0.9603    1.9042    0.0260 H         1 <0>         0.1272
     47 H3          1.1477    3.1723    0.0078 H         1 <0>         0.1310
     48 H4          3.3021    1.9852   -0.0192 H         1 <0>         0.1293
     49 H5          1.2182   -1.7603   -0.0191 H         1 <0>         0.1203
     50 H6         -0.9264   -0.5557    0.0083 H         1 <0>         0.1224
     51 H7          4.5215    0.4452   -1.6816 H         1 <0>         0.1597
     52 H8          7.5029   -3.6026    0.7341 H         1 <0>         0.1728
     53 H9          9.2198   -3.0510   -0.8374 H         1 <0>         0.1807
     54 H10         2.1946   -0.0677    2.1053 H         1 <0>         0.1443
     55 H11         0.4676   -0.6792    3.7467 H         1 <0>         0.1358
     56 H12         1.6579   -4.7688    3.5020 H         1 <0>         0.1356
     57 H13         3.3839   -4.1783    1.8517 H         1 <0>         0.1431
     58 H14         0.2298   -3.9953    5.3006 H         1 <0>         0.1400
     59 H15        -0.2667   -2.2890    5.4029 H         1 <0>         0.1389
     60 H16        -2.0893   -1.4861    4.0857 H         1 <0>         0.1367
     61 H17        -1.0841   -1.8712    2.6688 H         1 <0>         0.1394
     62 H18        -3.4789   -1.7059    2.0445 H         1 <0>         0.1244
     63 H19        -2.8695   -3.3623    1.8077 H         1 <0>         0.0899
     64 H20        -4.4564   -2.3492    4.2121 H         1 <0>         0.1305
     65 H21        -4.3597   -4.6863    4.9844 H         1 <0>         0.1234
     66 H22        -3.3938   -5.1364    3.5577 H         1 <0>         0.0882
     67 H23        -1.9439   -4.7804    5.5385 H         1 <0>         0.1390
     68 H24        -2.5734   -3.1240    5.7014 H         1 <0>         0.1376
     69 H25        -9.1673   -4.8340    0.2835 H         1 <0>         0.1436
     70 H26       -11.3712   -3.9715   -0.4699 H         1 <0>         0.1455
     71 H27       -12.0221   -1.6559    0.1548 H         1 <0>         0.1449
     72 H28       -10.4789   -0.2857    1.4943 H         1 <0>         0.1668
     73 H29         8.7254    0.4622   -4.1541 H         1 <0>         0.4680
     74 H30        -1.1752   -4.1732    3.3452 H         1 <0>         0.4221
@<TRIPOS>BOND
     1    1    6 ar
     2    1    2 ar
     3    1   46 1
     4    2    3 ar
     5    2   47 1
     6    3    4 ar
     7    3   48 1
     8    4    5 ar
     9    4    7 1
    10    5    6 ar
    11    5   49 1
    12    6   50 1
    13    7   20 ar
    14    7    8 ar
    15    8    9 ar
    16    8   51 1
    17    9   14 1
    18    9   10 ar
    19   10   11 1
    20   10   19 ar
    21   11   12 2
    22   11   52 1
    23   12   13 1
    24   12   53 1
    25   13   17 am
    26   13   14 1
    27   14   15 2
    28   15   16 1
    29   16   17 am
    30   16   73 1
    31   17   18 2
    32   19   20 ar
    33   20   21 1
    34   21   26 ar
    35   21   22 ar
    36   22   23 ar
    37   22   54 1
    38   23   24 ar
    39   23   55 1
    40   24   25 ar
    41   24   27 1
    42   25   26 ar
    43   25   56 1
    44   26   57 1
    45   27   28 1
    46   27   58 1
    47   27   59 1
    48   28   33 1
    49   28   29 1
    50   28   74 1
    51   29   30 1
    52   29   60 1
    53   29   61 1
    54   30   31 1
    55   30   62 1
    56   30   63 1
    57   31   32 1
    58   31   64 1
    59   31   34 1
    60   32   33 1
    61   32   65 1
    62   32   66 1
    63   33   67 1
    64   33   68 1
    65   34   35 2
    66   34   39 1
    67   35   36 1
    68   36   40 1
    69   36   37 2
    70   37   39 1
    71   38   39 1
    72   40   45 ar
    73   40   41 ar
    74   41   42 ar
    75   41   69 1
    76   42   43 ar
    77   42   70 1
    78   43   44 ar
    79   43   71 1
    80   44   45 ar
    81   44   72 1
@<TRIPOS>MOLECULE
CHEMBL367601
   70    76     0     0     0
SMALL
USER_CHARGES

@<TRIPOS>ATOM
      1 C1         -0.0184    1.5028    0.0103 C.3       1 <0>        -0.1181
      2 C2          0.0021   -0.0041    0.0020 C.ar      1 <0>        -0.0529
      3 C3          0.0057   -0.6866   -1.2063 C.ar      1 <0>        -0.1227
      4 C4          0.0241   -2.0522   -1.2352 C.ar      1 <0>        -0.0555
      5 C5          0.0400   -2.7738   -0.0386 C.ar      1 <0>         0.0377
      6 C6          0.0368   -2.0832    1.1851 C.ar      1 <0>         0.0605
      7 C7          0.0228   -0.6950    1.1947 C.ar      1 <0>        -0.1207
      8 N1          0.0549   -3.0514    2.1690 N.pl3     1 <0>        -0.5980
      9 C8          0.0682   -4.2609    1.5464 C.2       1 <0>         0.2664
     10 N2          0.0595   -4.0992    0.2554 N.2       1 <0>        -0.4710
     11 C9          0.0903   -5.5936    2.2495 C.3       1 <0>        -0.0150
     12 C10        -0.7236   -5.5035    3.5435 C.3       1 <0>        -0.1464
     13 C11        -0.6313   -6.8352    4.2915 C.3       1 <0>        -0.0026
     14 N3          0.7714   -7.1237    4.6132 N.4       1 <0>        -0.3839
     15 C12         1.5438   -7.2825    3.3751 C.3       1 <0>        -0.0116
     16 C13         1.5353   -5.9680    2.5919 C.3       1 <0>        -0.1379
     17 C14         0.8474   -8.3629    5.3983 C.3       1 <0>         0.0475
     18 C15         2.2713   -8.5953    5.8337 C.ar      1 <0>        -0.1694
     19 C16         3.1290   -9.3204    5.0259 C.ar      1 <0>        -0.1004
     20 C17         4.4339   -9.5366    5.4190 C.ar      1 <0>        -0.0861
     21 C18         4.8876   -9.0223    6.6335 C.ar      1 <0>         0.0218
     22 C19         4.0180   -8.2921    7.4435 C.ar      1 <0>        -0.0912
     23 C20         2.7170   -8.0779    7.0368 C.ar      1 <0>        -0.0944
     24 C21         6.2868   -9.2511    7.0615 C.ar      1 <0>         0.1170
     25 C22         6.9648   -8.2548    7.7840 C.ar      1 <0>        -0.0823
     26 C23         8.2804   -8.4857    8.1797 C.ar      1 <0>        -0.0528
     27 C24         8.8704   -9.7062    7.8378 C.ar      1 <0>         0.0307
     28 C25         8.1280  -10.6441    7.1179 C.ar      1 <0>         0.1181
     29 N4          6.8855  -10.3967    6.7638 N.ar      1 <0>        -0.4614
     30 C26        10.2654  -10.0002    8.2339 C.2       1 <0>         0.0617
     31 N5         10.9501  -11.1161    7.9768 N.2       1 <0>        -0.3570
     32 N6         12.1245  -10.9769    8.4900 N.2       1 <0>        -0.1778
     33 N7         12.2064   -9.8244    9.0569 N.2       1 <0>        -0.1789
     34 N8         11.0881   -9.1992    8.9135 N.2       1 <0>        -0.3590
     35 C27         6.2908   -6.9776    8.1195 C.ar      1 <0>        -0.0343
     36 C28         5.6289   -6.2544    7.1286 C.ar      1 <0>        -0.1023
     37 C29         5.0028   -5.0665    7.4468 C.ar      1 <0>        -0.1245
     38 C30         5.0317   -4.5928    8.7462 C.ar      1 <0>        -0.1196
     39 C31         5.6871   -5.3062    9.7337 C.ar      1 <0>        -0.1129
     40 C32         6.3117   -6.4982    9.4283 C.ar      1 <0>        -0.1030
     41 H1          1.0042    1.8801    0.0026 H         1 <0>         0.0768
     42 H2         -0.5455    1.8639   -0.8728 H         1 <0>         0.0735
     43 H3         -0.5286    1.8543    0.9071 H         1 <0>         0.0688
     44 H4         -0.0065   -0.1325   -2.1332 H         1 <0>         0.1346
     45 H5          0.0261   -2.5733   -2.1811 H         1 <0>         0.1334
     46 H6          0.0240   -0.1589    2.1323 H         1 <0>         0.1251
     47 H7         -0.3394   -6.3558    1.5995 H         1 <0>         0.1249
     48 H8         -0.3243   -4.7058    4.1699 H         1 <0>         0.0858
     49 H9         -1.7657   -5.2920    3.3040 H         1 <0>         0.1194
     50 H10        -1.2099   -6.7746    5.2132 H         1 <0>         0.1358
     51 H11        -1.0311   -7.6321    3.6644 H         1 <0>         0.1350
     52 H12         2.5711   -7.5521    3.6204 H         1 <0>         0.1406
     53 H13         1.0977   -8.0699    2.7676 H         1 <0>         0.1340
     54 H14         2.1078   -6.0885    1.6722 H         1 <0>         0.1217
     55 H15         1.9815   -5.1800    3.1986 H         1 <0>         0.0884
     56 H16         0.2084   -8.2760    6.2771 H         1 <0>         0.1356
     57 H17         0.5128   -9.2013    4.7873 H         1 <0>         0.1353
     58 H18         2.7764   -9.7184    4.0858 H         1 <0>         0.1307
     59 H19         5.1024  -10.1031    4.7877 H         1 <0>         0.1414
     60 H20         4.3635   -7.8918    8.3852 H         1 <0>         0.1406
     61 H21         2.0441   -7.5086    7.6609 H         1 <0>         0.1287
     62 H22         8.8305   -7.7410    8.7358 H         1 <0>         0.1475
     63 H23         8.5792  -11.5885    6.8513 H         1 <0>         0.1721
     64 H24         5.6063   -6.6230    6.1136 H         1 <0>         0.1181
     65 H25         4.4897   -4.5053    6.6799 H         1 <0>         0.1167
     66 H26         4.5410   -3.6622    8.9906 H         1 <0>         0.1209
     67 H27         5.7064   -4.9315   10.7465 H         1 <0>         0.1268
     68 H28         6.8196   -7.0564   10.2009 H         1 <0>         0.1297
     69 H29         1.1552   -6.3622    5.1525 H         1 <0>         0.4216
     70 H30         0.0580   -2.8978    3.1268 H         1 <0>         0.4188
@<TRIPOS>BOND
     1    1    2 1
     2    1   41 1
     3    1   42 1
     4    1   43 1
     5    2    7 ar
     6    2    3 ar
     7    3    4 ar
     8    3   44 1
     9    4    5 ar
    10    4   45 1
    11    5   10 1
    12    5    6 ar
    13    6    7 ar
    14    6    8 1
    15    7   46 1
    16    8    9 1
    17    8   70 1
    18    9   10 2
    19    9   11 1
    20   11   16 1
    21   11   12 1
    22   11   47 1
    23   12   13 1
    24   12   48 1
    25   12   49 1
    26   13   14 1
    27   13   50 1
    28   13   51 1
    29   14   15 1
    30   14   17 1
    31   14   69 1
    32   15   16 1
    33   15   52 1
    34   15   53 1
    35   16   54 1
    36   16   55 1
    37   17   18 1
    38   17   56 1
    39   17   57 1
    40   18   23 ar
    41   18   19 ar
    42   19   20 ar
    43   19   58 1
    44   20   21 ar
    45   20   59 1
    46   21   22 ar
    47   21   24 1
    48   22   23 ar
    49   22   60 1
    50   23   61 1
    51   24   29 ar
    52   24   25 ar
    53   25   26 ar
    54   25   35 1
    55   26   27 ar
    56   26   62 1
    57   27   28 ar
    58   27   30 1
    59   28   29 ar
    60   28   63 1
    61   30   31 2
    62   30   34 1
    63   31   32 1
    64   32   33 2
    65   33   34 1
    66   35   40 ar
    67   35   36 ar
    68   36   37 ar
    69   36   64 1
    70   37   38 ar
    71   37   65 1
    72   38   39 ar
    73   38   66 1
    74   39   40 ar
    75   39   67 1
    76   40   68 1
@<TRIPOS>MOLECULE
CHEMBL367601
   70    76     0     0     0
SMALL
USER_CHARGES

@<TRIPOS>ATOM
      1 C1         -0.0184    1.5028    0.0103 C.3       1 <0>        -0.1159
      2 C2          0.0021   -0.0041    0.0020 C.ar      1 <0>        -0.0870
      3 C3          0.0057   -0.6843   -1.2076 C.ar      1 <0>        -0.0885
      4 C4          0.0243   -2.0625   -1.2341 C.ar      1 <0>        -0.1117
      5 C5          0.0400   -2.7730   -0.0415 C.ar      1 <0>         0.0494
      6 C6          0.0368   -2.0838    1.1829 C.ar      1 <0>         0.0487
      7 C7          0.0226   -0.6865    1.1852 C.ar      1 <0>        -0.0640
      8 N1          0.0545   -3.0217    2.1647 N.2       1 <0>        -0.4730
      9 C8          0.0680   -4.2097    1.6344 C.2       1 <0>         0.2691
     10 N2          0.0598   -4.1161    0.2773 N.pl3     1 <0>        -0.5974
     11 H1          0.0664   -4.8559   -0.3501 H         1 <0>         0.4189
     12 C9          0.0899   -5.5013    2.4105 C.3       1 <0>        -0.0154
     13 C10         0.9203   -6.5406    1.6519 C.3       1 <0>        -0.1464
     14 C11         0.8728   -7.8718    2.4049 C.3       1 <0>        -0.0026
     15 N3         -0.5174   -8.3323    2.5047 N.4       1 <0>        -0.3840
     16 C12        -1.3036   -7.3754    3.2925 C.3       1 <0>        -0.0116
     17 C13        -1.3398   -6.0251    2.5737 C.3       1 <0>        -0.1380
     18 C14        -0.5504   -9.6471    3.1591 C.3       1 <0>         0.0476
     19 C15        -1.9614  -10.1763    3.1523 C.ar      1 <0>        -0.1694
     20 C16        -2.8123   -9.8826    4.2029 C.ar      1 <0>        -0.1004
     21 C17        -4.1053  -10.3642    4.2025 C.ar      1 <0>        -0.0861
     22 C18        -4.5539  -11.1486    3.1400 C.ar      1 <0>         0.0218
     23 C19        -3.6913  -11.4412    2.0838 C.ar      1 <0>        -0.0912
     24 C20        -2.4023  -10.9490    2.0929 C.ar      1 <0>        -0.0944
     25 C21        -5.9405  -11.6690    3.1337 C.ar      1 <0>         0.1170
     26 C22        -6.6328  -11.7888    1.9168 C.ar      1 <0>        -0.0824
     27 C23        -7.9362  -12.2805    1.9279 C.ar      1 <0>        -0.0527
     28 C24        -8.5001  -12.6348    3.1570 C.ar      1 <0>         0.0307
     29 C25        -7.7449  -12.4853    4.3218 C.ar      1 <0>         0.1182
     30 N4         -6.5143  -12.0225    4.2761 N.ar      1 <0>        -0.4614
     31 C26        -9.8812  -13.1616    3.2229 C.2       1 <0>         0.0618
     32 N5        -10.5411  -13.5367    4.3202 N.2       1 <0>        -0.3571
     33 N6        -11.7110  -13.9338    3.9517 N.2       1 <0>        -0.1778
     34 N7        -11.8137  -13.8244    2.6736 N.2       1 <0>        -0.1789
     35 N8        -10.7138  -13.3495    2.1974 N.2       1 <0>        -0.3590
     36 C27        -5.9864  -11.3976    0.6412 C.ar      1 <0>        -0.0343
     37 C28        -5.3577  -10.1588    0.5266 C.ar      1 <0>        -0.1022
     38 C29        -4.7573   -9.8002   -0.6632 C.ar      1 <0>        -0.1246
     39 C30        -4.7790  -10.6672   -1.7408 C.ar      1 <0>        -0.1196
     40 C31        -5.4015  -11.8978   -1.6329 C.ar      1 <0>        -0.1129
     41 C32        -6.0002  -12.2695   -0.4464 C.ar      1 <0>        -0.1030
     42 H2          1.0042    1.8801    0.0026 H         1 <0>         0.0739
     43 H3         -0.5455    1.8639   -0.8728 H         1 <0>         0.0706
     44 H4         -0.5286    1.8543    0.9071 H         1 <0>         0.0699
     45 H5         -0.0066   -0.1302   -2.1345 H         1 <0>         0.1351
     46 H6          0.0262   -2.5869   -2.1782 H         1 <0>         0.1262
     47 H7          0.0238   -0.1470    2.1208 H         1 <0>         0.1322
     48 H8          0.5292   -5.3287    3.3930 H         1 <0>         0.1251
     49 H9          0.5102   -6.6738    0.6508 H         1 <0>         0.0859
     50 H10         1.9531   -6.1995    1.5804 H         1 <0>         0.1194
     51 H11         1.4632   -8.6140    1.8675 H         1 <0>         0.1359
     52 H12         1.2833   -7.7375    3.4056 H         1 <0>         0.1350
     53 H13        -2.3200   -7.7511    3.4105 H         1 <0>         0.1406
     54 H14        -0.8467   -7.2517    4.2744 H         1 <0>         0.1340
     55 H15        -1.9226   -5.3155    3.1611 H         1 <0>         0.1217
     56 H16        -1.7969   -6.1476    1.5917 H         1 <0>         0.0885
     57 H17         0.0991  -10.3373    2.6206 H         1 <0>         0.1356
     58 H18        -0.2037   -9.5497    4.1879 H         1 <0>         0.1353
     59 H19        -2.4636   -9.2754    5.0252 H         1 <0>         0.1306
     60 H20        -4.7685  -10.1346    5.0234 H         1 <0>         0.1414
     61 H21        -4.0329  -12.0483    1.2585 H         1 <0>         0.1406
     62 H22        -1.7349  -11.1710    1.2733 H         1 <0>         0.1287
     63 H23        -8.4966  -12.3850    1.0106 H         1 <0>         0.1475
     64 H24        -8.1759  -12.7576    5.2739 H         1 <0>         0.1721
     65 H25        -5.3407   -9.4808    1.3671 H         1 <0>         0.1181
     66 H26        -4.2698   -8.8406   -0.7531 H         1 <0>         0.1167
     67 H27        -4.3085  -10.3820   -2.6702 H         1 <0>         0.1209
     68 H28        -5.4154  -12.5706   -2.4776 H         1 <0>         0.1268
     69 H29        -6.4824  -13.2322   -0.3619 H         1 <0>         0.1297
     70 H30        -0.9123   -8.4094    1.5794 H         1 <0>         0.4216
@<TRIPOS>BOND
     1    1    2 1
     2    1   42 1
     3    1   43 1
     4    1   44 1
     5    2    7 ar
     6    2    3 ar
     7    3    4 ar
     8    3   45 1
     9    4    5 ar
    10    4   46 1
    11    5   10 1
    12    5    6 ar
    13    6    7 ar
    14    6    8 1
    15    7   47 1
    16    8    9 2
    17    9   10 1
    18    9   12 1
    19   10   11 1
    20   12   17 1
    21   12   13 1
    22   12   48 1
    23   13   14 1
    24   13   49 1
    25   13   50 1
    26   14   15 1
    27   14   51 1
    28   14   52 1
    29   15   16 1
    30   15   18 1
    31   15   70 1
    32   16   17 1
    33   16   53 1
    34   16   54 1
    35   17   55 1
    36   17   56 1
    37   18   19 1
    38   18   57 1
    39   18   58 1
    40   19   24 ar
    41   19   20 ar
    42   20   21 ar
    43   20   59 1
    44   21   22 ar
    45   21   60 1
    46   22   23 ar
    47   22   25 1
    48   23   24 ar
    49   23   61 1
    50   24   62 1
    51   25   30 ar
    52   25   26 ar
    53   26   27 ar
    54   26   36 1
    55   27   28 ar
    56   27   63 1
    57   28   29 ar
    58   28   31 1
    59   29   30 ar
    60   29   64 1
    61   31   32 2
    62   31   35 1
    63   32   33 1
    64   33   34 2
    65   34   35 1
    66   36   41 ar
    67   36   37 ar
    68   37   38 ar
    69   37   65 1
    70   38   39 ar
    71   38   66 1
    72   39   40 ar
    73   39   67 1
    74   40   41 ar
    75   40   68 1
    76   41   69 1
@<TRIPOS>MOLECULE
CHEMBL369506
   78    83     0     0     0
SMALL
USER_CHARGES

@<TRIPOS>ATOM
      1 C1         -2.0022    1.5085   -1.1754 C.3       1 <0>        -0.1523
      2 C2         -1.5534    0.0462   -1.1426 C.3       1 <0>        -0.0803
      3 C3         -0.0446   -0.0188   -0.8970 C.3       1 <0>        -0.1490
      4 C4         -2.2855   -0.6869   -0.0168 C.3       1 <0>        -0.0689
      5 C5         -1.9370   -2.1523   -0.0618 C.2       1 <0>         0.1501
      6 N1         -1.1248   -2.5852   -0.9648 N.2       1 <0>        -0.4221
      7 C6         -0.7683   -3.8969   -1.0481 C.2       1 <0>         0.0378
      8 C7         -1.0025   -4.7482    0.0119 C.2       1 <0>         0.1392
      9 N2         -1.6231   -4.2238    1.1462 N.pl3     1 <0>        -0.7322
     10 C8         -2.5381   -3.0910    0.9538 C.3       1 <0>         0.3190
     11 O1         -3.7965   -3.5719    0.4772 O.3       1 <0>        -0.5668
     12 C9         -0.6096   -6.1681   -0.0520 C.ar      1 <0>        -0.0011
     13 C10         0.6809   -6.5222   -0.4554 C.ar      1 <0>        -0.0818
     14 C11         1.0412   -7.8521   -0.5123 C.ar      1 <0>        -0.0923
     15 C12         0.1285   -8.8351   -0.1715 C.ar      1 <0>        -0.1603
     16 C13        -1.1513   -8.4921    0.2285 C.ar      1 <0>        -0.0886
     17 C14        -1.5241   -7.1661    0.2962 C.ar      1 <0>        -0.0992
     18 C15         0.5300  -10.2861   -0.2368 C.3       1 <0>         0.0445
     19 N3          1.0881  -10.6985    1.0580 N.4       1 <0>        -0.3847
     20 C16         2.3276   -9.9550    1.3139 C.3       1 <0>        -0.0068
     21 C17         2.8701  -10.3211    2.6971 C.3       1 <0>        -0.1603
     22 C18         3.1556  -11.8248    2.7459 C.3       1 <0>         0.1371
     23 C19         1.8733  -12.5893    2.4044 C.3       1 <0>        -0.1609
     24 C20         1.3677  -12.1392    1.0321 C.3       1 <0>         0.0001
     25 N4          3.6033  -12.1951    4.0907 N.pl3     1 <0>        -0.4965
     26 C21         4.8214  -12.7630    4.4231 C.ar      1 <0>         0.0583
     27 C22         5.9360  -13.1462    3.6923 C.ar      1 <0>        -0.1170
     28 C23         7.0227  -13.6993    4.3370 C.ar      1 <0>        -0.0857
     29 C24         7.0088  -13.8752    5.7130 C.ar      1 <0>        -0.1183
     30 C25         5.9107  -13.5009    6.4542 C.ar      1 <0>        -0.0568
     31 C26         4.8021  -12.9388    5.8165 C.ar      1 <0>         0.0561
     32 N5          3.6016  -12.4811    6.2596 N.2       1 <0>        -0.4686
     33 C27         2.8999  -12.0391    5.2487 C.2       1 <0>         0.4435
     34 O2          1.6583  -11.5093    5.3378 O.3       1 <0>        -0.4433
     35 C28        -0.1288   -4.4104   -2.2787 C.ar      1 <0>        -0.0189
     36 C29        -0.6118   -5.5696   -2.8886 C.ar      1 <0>        -0.1063
     37 C30        -0.0109   -6.0429   -4.0366 C.ar      1 <0>        -0.1197
     38 C31         1.0685   -5.3716   -4.5834 C.ar      1 <0>        -0.1162
     39 C32         1.5521   -4.2221   -3.9840 C.ar      1 <0>        -0.1173
     40 C33         0.9569   -3.7348   -2.8389 C.ar      1 <0>        -0.0918
     41 H1         -1.4807    2.0308   -1.9775 H         1 <0>         0.0577
     42 H2         -3.0771    1.5548   -1.3504 H         1 <0>         0.0548
     43 H3         -1.7687    1.9817   -0.2217 H         1 <0>         0.0544
     44 H4         -1.7869   -0.4270   -2.0964 H         1 <0>         0.0772
     45 H5          0.2751   -1.0605   -0.8736 H         1 <0>         0.0713
     46 H6          0.4769    0.5035   -1.6991 H         1 <0>         0.0503
     47 H7          0.1889    0.4544    0.0568 H         1 <0>         0.0442
     48 H8         -1.9833   -0.2709    0.9443 H         1 <0>         0.0872
     49 H9         -3.3612   -0.5652   -0.1433 H         1 <0>         0.0931
     50 H10        -1.4553   -4.5907    2.0283 H         1 <0>         0.4070
     51 H11        -2.6776   -2.5669    1.8993 H         1 <0>         0.1022
     52 H12        -4.2393   -4.1821    1.0827 H         1 <0>         0.3794
     53 H13         1.3939   -5.7562   -0.7223 H         1 <0>         0.1384
     54 H14         2.0380   -8.1273   -0.8239 H         1 <0>         0.1340
     55 H15        -1.8584   -9.2646    0.4923 H         1 <0>         0.1338
     56 H16        -2.5217   -6.8997    0.6128 H         1 <0>         0.1348
     57 H17        -0.3445  -10.8951   -0.4660 H         1 <0>         0.1397
     58 H18         1.2807  -10.4207   -1.0155 H         1 <0>         0.1380
     59 H19         3.0671  -10.2102    0.5549 H         1 <0>         0.1336
     60 H20         2.1234   -8.8850    1.2757 H         1 <0>         0.1400
     61 H21         3.7913   -9.7694    2.8845 H         1 <0>         0.1191
     62 H22         2.1314  -10.0660    3.4569 H         1 <0>         0.1047
     63 H23         3.9313  -12.0722    2.0212 H         1 <0>         0.1170
     64 H24         2.0820  -13.6589    2.3826 H         1 <0>         0.1225
     65 H25         1.1139  -12.3813    3.1582 H         1 <0>         0.0930
     66 H26         0.4550  -12.6816    0.7858 H         1 <0>         0.1410
     67 H27         2.1277  -12.3478    0.2791 H         1 <0>         0.1359
     68 H28         5.9530  -13.0123    2.6207 H         1 <0>         0.1224
     69 H29         7.8901  -13.9977    3.7668 H         1 <0>         0.1376
     70 H30         7.8658  -14.3094    6.2065 H         1 <0>         0.1389
     71 H31         5.9064  -13.6414    7.5250 H         1 <0>         0.1376
     72 H32         0.9467  -12.1593    5.2591 H         1 <0>         0.4057
     73 H33        -1.4537   -6.0949   -2.4624 H         1 <0>         0.1135
     74 H34        -0.3835   -6.9395   -4.5094 H         1 <0>         0.1204
     75 H35         1.5357   -5.7468   -5.4819 H         1 <0>         0.1226
     76 H36         2.3951   -3.7031   -4.4157 H         1 <0>         0.1255
     77 H37         1.3325   -2.8350   -2.3745 H         1 <0>         0.1260
     78 H38         0.4218  -10.4993    1.7891 H         1 <0>         0.4237
@<TRIPOS>BOND
     1    1    2 1
     2    1   41 1
     3    1   42 1
     4    1   43 1
     5    2    3 1
     6    2    4 1
     7    2   44 1
     8    3   45 1
     9    3   46 1
    10    3   47 1
    11    4    5 1
    12    4   48 1
    13    4   49 1
    14    5   10 1
    15    5    6 2
    16    6    7 1
    17    7    8 2
    18    7   35 1
    19    8    9 1
    20    8   12 1
    21    9   10 1
    22    9   50 1
    23   10   11 1
    24   10   51 1
    25   11   52 1
    26   12   17 ar
    27   12   13 ar
    28   13   14 ar
    29   13   53 1
    30   14   15 ar
    31   14   54 1
    32   15   16 ar
    33   15   18 1
    34   16   17 ar
    35   16   55 1
    36   17   56 1
    37   18   19 1
    38   18   57 1
    39   18   58 1
    40   19   24 1
    41   19   20 1
    42   19   78 1
    43   20   21 1
    44   20   59 1
    45   20   60 1
    46   21   22 1
    47   21   61 1
    48   21   62 1
    49   22   23 1
    50   22   25 1
    51   22   63 1
    52   23   24 1
    53   23   64 1
    54   23   65 1
    55   24   66 1
    56   24   67 1
    57   25   33 1
    58   25   26 1
    59   26   31 ar
    60   26   27 ar
    61   27   28 ar
    62   27   68 1
    63   28   29 ar
    64   28   69 1
    65   29   30 ar
    66   29   70 1
    67   30   31 ar
    68   30   71 1
    69   31   32 1
    70   32   33 2
    71   33   34 1
    72   34   72 1
    73   35   40 ar
    74   35   36 ar
    75   36   37 ar
    76   36   73 1
    77   37   38 ar
    78   37   74 1
    79   38   39 ar
    80   38   75 1
    81   39   40 ar
    82   39   76 1
    83   40   77 1
@<TRIPOS>MOLECULE
CHEMBL369506
   78    83     0     0     0
SMALL
USER_CHARGES

@<TRIPOS>ATOM
      1 C1         -0.7267    1.7207    0.1335 C.3       1 <0>        -0.1449
      2 C2         -0.6712    0.1996    0.2889 C.3       1 <0>        -0.0742
      3 C3         -0.1968   -0.1519    1.7004 C.3       1 <0>        -0.1415
      4 C4         -2.0441   -0.3789    0.0618 C.2       1 <0>        -0.0504
      5 C5         -2.2427   -1.2562   -0.9195 C.2       1 <0>        -0.0435
      6 N1         -1.2179   -1.6438   -1.7293 N.2       1 <0>        -0.4101
      7 C6         -1.3460   -2.6595   -2.5268 C.2       1 <0>         0.1786
      8 C7         -2.6123   -3.4596   -2.6278 C.3       1 <0>         0.0896
      9 N2         -3.4341   -3.2901   -1.4237 N.4       1 <0>        -0.5088
     10 C8         -3.6112   -1.8545   -1.1615 C.3       1 <0>         0.2500
     11 O1         -4.2197   -1.2305   -2.2939 O.3       1 <0>        -0.7878
     12 C9         -2.2661   -4.9172   -2.7907 C.ar      1 <0>        -0.0738
     13 C10        -1.7408   -5.6259   -1.7265 C.ar      1 <0>        -0.1075
     14 C11        -1.4233   -6.9630   -1.8759 C.ar      1 <0>        -0.0853
     15 C12        -1.6313   -7.5914   -3.0894 C.ar      1 <0>        -0.1477
     16 C13        -2.1574   -6.8829   -4.1534 C.ar      1 <0>        -0.0808
     17 C14        -2.4790   -5.5469   -4.0028 C.ar      1 <0>        -0.0819
     18 C15        -1.2842   -9.0488   -3.2526 C.3       1 <0>         0.0420
     19 N3         -2.4504   -9.8718   -2.9053 N.4       1 <0>        -0.3850
     20 C16        -2.7653   -9.6959   -1.4825 C.3       1 <0>        -0.0068
     21 C17        -4.0276  -10.4875   -1.1340 C.3       1 <0>        -0.1609
     22 C18        -3.7895  -11.9719   -1.4260 C.3       1 <0>         0.1373
     23 C19        -3.3892  -12.1352   -2.8951 C.3       1 <0>        -0.1616
     24 C20        -2.1506  -11.2825   -3.1784 C.3       1 <0>         0.0001
     25 N4         -5.0187  -12.7255   -1.1665 N.pl3     1 <0>        -0.4971
     26 C21        -5.1746  -13.7514   -0.2500 C.ar      1 <0>         0.0582
     27 C22        -4.3252  -14.3717    0.6541 C.ar      1 <0>        -0.1175
     28 C23        -4.7980  -15.3945    1.4495 C.ar      1 <0>        -0.0853
     29 C24        -6.1187  -15.8078    1.3517 C.ar      1 <0>        -0.1181
     30 C25        -6.9756  -15.2037    0.4596 C.ar      1 <0>        -0.0562
     31 C26        -6.5126  -14.1659   -0.3530 C.ar      1 <0>         0.0561
     32 N5         -7.0977  -13.3923   -1.3050 N.2       1 <0>        -0.4675
     33 C27        -6.2237  -12.5430   -1.7788 C.2       1 <0>         0.4431
     34 O2         -6.4762  -11.6222   -2.7372 O.3       1 <0>        -0.4434
     35 C28        -0.2012   -3.0431   -3.3686 C.ar      1 <0>        -0.0513
     36 C29        -0.4131   -3.5533   -4.6532 C.ar      1 <0>        -0.0999
     37 C30         0.6646   -3.9105   -5.4357 C.ar      1 <0>        -0.1208
     38 C31         1.9534   -3.7652   -4.9527 C.ar      1 <0>        -0.1025
     39 C32         2.1713   -3.2611   -3.6824 C.ar      1 <0>        -0.1205
     40 C33         1.1042   -2.8940   -2.8900 C.ar      1 <0>        -0.0735
     41 H1          0.2663    2.1392    0.2977 H         1 <0>         0.0615
     42 H2         -1.0647    1.9711   -0.8721 H         1 <0>         0.0572
     43 H3         -1.4212    2.1355    0.8641 H         1 <0>         0.0569
     44 H4          0.0232   -0.2152   -0.4417 H         1 <0>         0.0925
     45 H5         -0.1573   -1.2355    1.8111 H         1 <0>         0.0500
     46 H6          0.7962    0.2666    1.8646 H         1 <0>         0.0621
     47 H7         -0.8912    0.2629    2.4310 H         1 <0>         0.0574
     48 H8         -2.8669   -0.0817    0.6952 H         1 <0>         0.1278
     49 H9         -3.1782   -3.1268   -3.4979 H         1 <0>         0.1588
     50 H10        -4.3348   -3.7219   -1.5659 H         1 <0>         0.4101
     51 H11        -4.2372   -1.7143   -0.2802 H         1 <0>         0.0763
     52 H12        -1.5783   -5.1350   -0.7783 H         1 <0>         0.1330
     53 H13        -1.0122   -7.5165   -1.0446 H         1 <0>         0.1381
     54 H14        -2.3196   -7.3737   -5.1016 H         1 <0>         0.1407
     55 H15        -2.8935   -4.9943   -4.8330 H         1 <0>         0.1459
     56 H16        -0.9990   -9.2407   -4.2869 H         1 <0>         0.1429
     57 H17        -0.4529   -9.3002   -2.5939 H         1 <0>         0.1401
     58 H18        -1.9324  -10.0569   -0.8792 H         1 <0>         0.1342
     59 H19        -2.9313   -8.6387   -1.2756 H         1 <0>         0.1382
     60 H20        -4.2587  -10.3571   -0.0768 H         1 <0>         0.1194
     61 H21        -4.8613  -10.1272   -1.7366 H         1 <0>         0.1056
     62 H22        -2.9897  -12.3454   -0.7866 H         1 <0>         0.1169
     63 H23        -3.1640  -13.1824   -3.0968 H         1 <0>         0.1233
     64 H24        -4.2096  -11.8090   -3.5344 H         1 <0>         0.0938
     65 H25        -1.8628  -11.3966   -4.2235 H         1 <0>         0.1421
     66 H26        -1.3308  -11.6096   -2.5389 H         1 <0>         0.1364
     67 H27        -3.2959  -14.0548    0.7347 H         1 <0>         0.1222
     68 H28        -4.1356  -15.8771    2.1529 H         1 <0>         0.1377
     69 H29        -6.4771  -16.6098    1.9800 H         1 <0>         0.1391
     70 H30        -8.0024  -15.5309    0.3882 H         1 <0>         0.1380
     71 H31        -6.3223  -11.9394   -3.6376 H         1 <0>         0.4060
     72 H32        -1.4183   -3.6675   -5.0313 H         1 <0>         0.1210
     73 H33         0.5025   -4.3049   -6.4280 H         1 <0>         0.1262
     74 H34         2.7934   -4.0471   -5.5702 H         1 <0>         0.1261
     75 H35         3.1800   -3.1510   -3.3123 H         1 <0>         0.1285
     76 H36         1.2760   -2.4962   -1.9007 H         1 <0>         0.1295
     77 H37        -3.2417   -9.5835   -3.4610 H         1 <0>         0.4247
     78 H38        -2.9723   -3.7200   -0.6363 H         1 <0>         0.3911
@<TRIPOS>BOND
     1    1    2 1
     2    1   41 1
     3    1   42 1
     4    1   43 1
     5    2    3 1
     6    2   44 1
     7    2    4 1
     8    3   45 1
     9    3   46 1
    10    3   47 1
    11    4    5 2
    12    4   48 1
    13    5    6 1
    14    5   10 1
    15    6    7 2
    16    7    8 1
    17    7   35 1
    18    8    9 1
    19    8   12 1
    20    8   49 1
    21    9   10 1
    22    9   50 1
    23    9   78 1
    24   10   11 1
    25   10   51 1
    26   12   17 ar
    27   12   13 ar
    28   13   14 ar
    29   13   52 1
    30   14   15 ar
    31   14   53 1
    32   15   16 ar
    33   15   18 1
    34   16   17 ar
    35   16   54 1
    36   17   55 1
    37   18   19 1
    38   18   56 1
    39   18   57 1
    40   19   24 1
    41   19   20 1
    42   19   77 1
    43   20   21 1
    44   20   58 1
    45   20   59 1
    46   21   22 1
    47   21   60 1
    48   21   61 1
    49   22   23 1
    50   22   25 1
    51   22   62 1
    52   23   24 1
    53   23   63 1
    54   23   64 1
    55   24   65 1
    56   24   66 1
    57   25   33 1
    58   25   26 1
    59   26   31 ar
    60   26   27 ar
    61   27   28 ar
    62   27   67 1
    63   28   29 ar
    64   28   68 1
    65   29   30 ar
    66   29   69 1
    67   30   31 ar
    68   30   70 1
    69   31   32 1
    70   32   33 2
    71   33   34 1
    72   34   71 1
    73   35   40 ar
    74   35   36 ar
    75   36   37 ar
    76   36   72 1
    77   37   38 ar
    78   37   73 1
    79   38   39 ar
    80   38   74 1
    81   39   40 ar
    82   39   75 1
    83   40   76 1
@<TRIPOS>MOLECULE
CHEMBL369506
   77    82     0     0     0
SMALL
USER_CHARGES

@<TRIPOS>ATOM
      1 C1          0.6392    1.1984   -0.2893 C.3       1 <0>        -0.1441
      2 C2          0.2679   -0.2646   -0.0394 C.3       1 <0>        -0.0778
      3 C3          0.7354   -0.6779    1.3576 C.3       1 <0>        -0.1417
      4 C4         -1.2270   -0.4273   -0.1374 C.2       1 <0>        -0.0577
      5 C5         -1.7549   -1.1460   -1.1258 C.2       1 <0>        -0.0364
      6 N1         -3.0903   -1.4144   -1.1597 N.2       1 <0>        -0.4211
      7 C6         -3.6445   -1.9066   -2.2248 C.2       1 <0>         0.1859
      8 C7         -2.8704   -2.2263   -3.4707 C.3       1 <0>         0.0908
      9 N2         -1.6103   -1.4749   -3.5094 N.4       1 <0>        -0.5097
     10 C8         -0.8891   -1.6816   -2.2451 C.3       1 <0>         0.2446
     11 O1         -0.6524   -3.0773   -2.0495 O.3       1 <0>        -0.7902
     12 C9         -3.6999   -1.8655   -4.6761 C.ar      1 <0>        -0.0835
     13 C10        -3.9660   -0.5390   -4.9601 C.ar      1 <0>        -0.1071
     14 C11        -4.7268   -0.2080   -6.0657 C.ar      1 <0>        -0.0845
     15 C12        -5.2213   -1.2035   -6.8876 C.ar      1 <0>        -0.1380
     16 C13        -4.9545   -2.5299   -6.6041 C.ar      1 <0>        -0.0809
     17 C14        -4.1900   -2.8607   -5.5009 C.ar      1 <0>        -0.0829
     18 C15        -6.0516   -0.8427   -8.0923 C.3       1 <0>         0.0409
     19 N3         -5.1731   -0.6589   -9.2553 N.4       1 <0>        -0.3827
     20 C16        -4.2906    0.4907   -9.0231 C.3       1 <0>        -0.0025
     21 C17        -3.3185    0.6374  -10.1958 C.3       1 <0>        -0.1612
     22 C18        -4.1135    0.8547  -11.4865 C.3       1 <0>         0.1622
     23 C19        -5.0838   -0.3143  -11.6797 C.3       1 <0>        -0.1635
     24 C20        -5.9904   -0.4258  -10.4520 C.3       1 <0>         0.0030
     25 N4         -3.1926    0.9200  -12.6239 N.pl3     1 <0>        -0.5389
     26 C21        -3.0296    1.9895  -13.4879 C.ar      1 <0>         0.0029
     27 C22        -3.6097    3.2456  -13.5847 C.ar      1 <0>        -0.1062
     28 C23        -3.2194    4.1064  -14.5893 C.ar      1 <0>        -0.1588
     29 C24        -2.2496    3.7243  -15.5047 C.ar      1 <0>        -0.1193
     30 C25        -1.6635    2.4812  -15.4239 C.ar      1 <0>        -0.1172
     31 C26        -2.0473    1.5977  -14.4121 C.ar      1 <0>         0.1142
     32 N5         -1.6651    0.3371  -14.0776 N.2       1 <0>        -0.6052
     33 C27        -2.3321   -0.0592  -13.0251 C.2       1 <0>         0.5588
     34 O2         -2.1924   -1.2637  -12.4253 O.3       1 <0>        -0.7058
     35 C28        -5.0939   -2.1628   -2.2107 C.ar      1 <0>        -0.0513
     36 C29        -5.6221   -3.2506   -2.9129 C.ar      1 <0>        -0.0959
     37 C30        -6.9810   -3.4839   -2.8947 C.ar      1 <0>        -0.1209
     38 C31        -7.8215   -2.6449   -2.1840 C.ar      1 <0>        -0.1029
     39 C32        -7.3063   -1.5663   -1.4866 C.ar      1 <0>        -0.1224
     40 C33        -5.9490   -1.3230   -1.4902 C.ar      1 <0>        -0.0733
     41 H1          1.7205    1.3161   -0.2183 H         1 <0>         0.0636
     42 H2          0.3062    1.4929   -1.2845 H         1 <0>         0.0512
     43 H3          0.1554    1.8286    0.4570 H         1 <0>         0.0591
     44 H4          0.7517   -0.8948   -0.7856 H         1 <0>         0.0891
     45 H5          0.4709   -1.7203    1.5357 H         1 <0>         0.0598
     46 H6          1.8167   -0.5603    1.4286 H         1 <0>         0.0628
     47 H7          0.2515   -0.0478    2.1039 H         1 <0>         0.0569
     48 H8         -1.8702    0.0391    0.5941 H         1 <0>         0.1232
     49 H9         -2.6521   -3.2939   -3.4932 H         1 <0>         0.1586
     50 H10        -1.0454   -1.8020   -4.2787 H         1 <0>         0.4125
     51 H11         0.0591   -1.1446   -2.2685 H         1 <0>         0.0811
     52 H12        -3.5797    0.2387   -4.3180 H         1 <0>         0.1310
     53 H13        -4.9353    0.8282   -6.2872 H         1 <0>         0.1385
     54 H14        -5.3411   -3.3076   -7.2460 H         1 <0>         0.1413
     55 H15        -3.9784   -3.8967   -5.2814 H         1 <0>         0.1440
     56 H16        -6.7623   -1.6435   -8.2968 H         1 <0>         0.1388
     57 H17        -6.5933    0.0826   -7.8964 H         1 <0>         0.1363
     58 H18        -4.8904    1.3964   -8.9334 H         1 <0>         0.1255
     59 H19        -3.7278    0.3361   -8.1025 H         1 <0>         0.1271
     60 H20        -2.6653    1.4926  -10.0223 H         1 <0>         0.1068
     61 H21        -2.7180   -0.2677  -10.2861 H         1 <0>         0.1125
     62 H22        -4.6748    1.7864  -11.4164 H         1 <0>         0.0879
     63 H23        -5.6924   -0.1394  -12.5669 H         1 <0>         0.1092
     64 H24        -4.5199   -1.2392  -11.8009 H         1 <0>         0.1136
     65 H25        -6.6826   -1.2570  -10.5863 H         1 <0>         0.1313
     66 H26        -6.5540    0.4995  -10.3319 H         1 <0>         0.1265
     67 H27        -4.3655    3.5489  -12.8753 H         1 <0>         0.0989
     68 H28        -3.6720    5.0841  -14.6639 H         1 <0>         0.1127
     69 H29        -1.9523    4.4071  -16.2869 H         1 <0>         0.1146
     70 H30        -0.9097    2.1900  -16.1404 H         1 <0>         0.1161
     71 H31        -4.9676   -3.9060   -3.4682 H         1 <0>         0.1223
     72 H32        -7.3906   -4.3234   -3.4369 H         1 <0>         0.1264
     73 H33        -8.8850   -2.8327   -2.1740 H         1 <0>         0.1252
     74 H34        -7.9686   -0.9158   -0.9346 H         1 <0>         0.1274
     75 H35        -5.5478   -0.4837   -0.9415 H         1 <0>         0.1292
     76 H36        -4.6139   -1.4884   -9.3875 H         1 <0>         0.4277
     77 H37        -1.8064   -0.4920   -3.6263 H         1 <0>         0.3917
@<TRIPOS>BOND
     1    1    2 1
     2    1   41 1
     3    1   42 1
     4    1   43 1
     5    2    3 1
     6    2   44 1
     7    2    4 1
     8    3   45 1
     9    3   46 1
    10    3   47 1
    11    4    5 2
    12    4   48 1
    13    5    6 1
    14    5   10 1
    15    6    7 2
    16    7    8 1
    17    7   35 1
    18    8    9 1
    19    8   12 1
    20    8   49 1
    21    9   10 1
    22    9   50 1
    23    9   77 1
    24   10   11 1
    25   10   51 1
    26   12   17 ar
    27   12   13 ar
    28   13   14 ar
    29   13   52 1
    30   14   15 ar
    31   14   53 1
    32   15   16 ar
    33   15   18 1
    34   16   17 ar
    35   16   54 1
    36   17   55 1
    37   18   19 1
    38   18   56 1
    39   18   57 1
    40   19   24 1
    41   19   20 1
    42   19   76 1
    43   20   21 1
    44   20   58 1
    45   20   59 1
    46   21   22 1
    47   21   60 1
    48   21   61 1
    49   22   23 1
    50   22   25 1
    51   22   62 1
    52   23   24 1
    53   23   63 1
    54   23   64 1
    55   24   65 1
    56   24   66 1
    57   25   33 1
    58   25   26 1
    59   26   31 ar
    60   26   27 ar
    61   27   28 ar
    62   27   67 1
    63   28   29 ar
    64   28   68 1
    65   29   30 ar
    66   29   69 1
    67   30   31 ar
    68   30   70 1
    69   31   32 1
    70   32   33 2
    71   33   34 1
    72   35   40 ar
    73   35   36 ar
    74   36   37 ar
    75   36   71 1
    76   37   38 ar
    77   37   72 1
    78   38   39 ar
    79   38   73 1
    80   39   40 ar
    81   39   74 1
    82   40   75 1
@<TRIPOS>MOLECULE
CHEMBL369506
   77    82     0     0     0
SMALL
USER_CHARGES

@<TRIPOS>ATOM
      1 C1         -0.7267    1.7207    0.1335 C.3       1 <0>        -0.1438
      2 C2         -0.6712    0.1996    0.2889 C.3       1 <0>        -0.0730
      3 C3         -0.1968   -0.1519    1.7004 C.3       1 <0>        -0.1413
      4 C4         -2.0441   -0.3789    0.0618 C.2       1 <0>        -0.0587
      5 C5         -2.2427   -1.2562   -0.9195 C.2       1 <0>        -0.0374
      6 N1         -1.2179   -1.6438   -1.7293 N.2       1 <0>        -0.4162
      7 C6         -1.3460   -2.6595   -2.5268 C.2       1 <0>         0.1851
      8 C7         -2.6123   -3.4596   -2.6278 C.3       1 <0>         0.0910
      9 N2         -3.4341   -3.2901   -1.4237 N.4       1 <0>        -0.5095
     10 C8         -3.6112   -1.8545   -1.1615 C.3       1 <0>         0.2505
     11 O1         -4.2197   -1.2305   -2.2939 O.3       1 <0>        -0.7907
     12 C9         -2.2661   -4.9172   -2.7907 C.ar      1 <0>        -0.0825
     13 C10        -1.7408   -5.6259   -1.7265 C.ar      1 <0>        -0.1086
     14 C11        -1.4233   -6.9630   -1.8759 C.ar      1 <0>        -0.0843
     15 C12        -1.6313   -7.5914   -3.0894 C.ar      1 <0>        -0.1383
     16 C13        -2.1574   -6.8829   -4.1534 C.ar      1 <0>        -0.0806
     17 C14        -2.4790   -5.5469   -4.0028 C.ar      1 <0>        -0.0825
     18 C15        -1.2842   -9.0488   -3.2526 C.3       1 <0>         0.0409
     19 N3         -2.4504   -9.8718   -2.9053 N.4       1 <0>        -0.3828
     20 C16        -2.7653   -9.6959   -1.4825 C.3       1 <0>        -0.0024
     21 C17        -4.0276  -10.4875   -1.1340 C.3       1 <0>        -0.1613
     22 C18        -3.7895  -11.9719   -1.4260 C.3       1 <0>         0.1622
     23 C19        -3.3892  -12.1352   -2.8951 C.3       1 <0>        -0.1636
     24 C20        -2.1506  -11.2825   -3.1784 C.3       1 <0>         0.0031
     25 N4         -5.0187  -12.7255   -1.1665 N.pl3     1 <0>        -0.5389
     26 C21        -5.1746  -13.7514   -0.2500 C.ar      1 <0>         0.0029
     27 C22        -4.3252  -14.3717    0.6541 C.ar      1 <0>        -0.1062
     28 C23        -4.7980  -15.3945    1.4495 C.ar      1 <0>        -0.1588
     29 C24        -6.1187  -15.8078    1.3517 C.ar      1 <0>        -0.1193
     30 C25        -6.9756  -15.2037    0.4596 C.ar      1 <0>        -0.1171
     31 C26        -6.5126  -14.1659   -0.3530 C.ar      1 <0>         0.1140
     32 N5         -7.0977  -13.3923   -1.3050 N.2       1 <0>        -0.6052
     33 C27        -6.2237  -12.5430   -1.7788 C.2       1 <0>         0.5588
     34 O2         -6.4762  -11.6222   -2.7372 O.3       1 <0>        -0.7058
     35 C28        -0.2012   -3.0431   -3.3686 C.ar      1 <0>        -0.0502
     36 C29        -0.4131   -3.5533   -4.6532 C.ar      1 <0>        -0.0970
     37 C30         0.6646   -3.9105   -5.4357 C.ar      1 <0>        -0.1206
     38 C31         1.9534   -3.7652   -4.9527 C.ar      1 <0>        -0.1033
     39 C32         2.1713   -3.2611   -3.6824 C.ar      1 <0>        -0.1222
     40 C33         1.1042   -2.8940   -2.8900 C.ar      1 <0>        -0.0736
     41 H1          0.2663    2.1392    0.2977 H         1 <0>         0.0597
     42 H2         -1.0647    1.9711   -0.8721 H         1 <0>         0.0568
     43 H3         -1.4212    2.1355    0.8641 H         1 <0>         0.0559
     44 H4          0.0232   -0.2152   -0.4417 H         1 <0>         0.0924
     45 H5         -0.1573   -1.2355    1.8111 H         1 <0>         0.0509
     46 H6          0.7962    0.2666    1.8646 H         1 <0>         0.0605
     47 H7         -0.8912    0.2629    2.4310 H         1 <0>         0.0566
     48 H8         -2.8669   -0.0817    0.6952 H         1 <0>         0.1266
     49 H9         -3.1782   -3.1268   -3.4979 H         1 <0>         0.1584
     50 H10        -4.3348   -3.7219   -1.5659 H         1 <0>         0.4127
     51 H11        -4.2372   -1.7143   -0.2802 H         1 <0>         0.0750
     52 H12        -1.5783   -5.1350   -0.7783 H         1 <0>         0.1307
     53 H13        -1.0122   -7.5165   -1.0446 H         1 <0>         0.1384
     54 H14        -2.3196   -7.3737   -5.1016 H         1 <0>         0.1412
     55 H15        -2.8935   -4.9943   -4.8330 H         1 <0>         0.1440
     56 H16        -0.9990   -9.2407   -4.2869 H         1 <0>         0.1387
     57 H17        -0.4529   -9.3002   -2.5939 H         1 <0>         0.1363
     58 H18        -1.9324  -10.0569   -0.8792 H         1 <0>         0.1254
     59 H19        -2.9313   -8.6387   -1.2756 H         1 <0>         0.1271
     60 H20        -4.2587  -10.3571   -0.0768 H         1 <0>         0.1068
     61 H21        -4.8613  -10.1272   -1.7366 H         1 <0>         0.1125
     62 H22        -2.9897  -12.3454   -0.7866 H         1 <0>         0.0879
     63 H23        -3.1640  -13.1824   -3.0968 H         1 <0>         0.1092
     64 H24        -4.2096  -11.8090   -3.5344 H         1 <0>         0.1136
     65 H25        -1.8628  -11.3966   -4.2235 H         1 <0>         0.1312
     66 H26        -1.3308  -11.6096   -2.5389 H         1 <0>         0.1265
     67 H27        -3.2959  -14.0548    0.7347 H         1 <0>         0.0989
     68 H28        -4.1356  -15.8771    2.1529 H         1 <0>         0.1127
     69 H29        -6.4771  -16.6098    1.9800 H         1 <0>         0.1147
     70 H30        -8.0024  -15.5309    0.3882 H         1 <0>         0.1161
     71 H31        -1.4183   -3.6675   -5.0313 H         1 <0>         0.1225
     72 H32         0.5025   -4.3049   -6.4280 H         1 <0>         0.1263
     73 H33         2.7934   -4.0471   -5.5702 H         1 <0>         0.1250
     74 H34         3.1800   -3.1510   -3.3123 H         1 <0>         0.1271
     75 H35         1.2760   -2.4962   -1.9007 H         1 <0>         0.1289
     76 H36        -3.2417   -9.5835   -3.4610 H         1 <0>         0.4277
     77 H37        -2.9723   -3.7200   -0.6363 H         1 <0>         0.3920
@<TRIPOS>BOND
     1    1    2 1
     2    1   41 1
     3    1   42 1
     4    1   43 1
     5    2    3 1
     6    2   44 1
     7    2    4 1
     8    3   45 1
     9    3   46 1
    10    3   47 1
    11    4    5 2
    12    4   48 1
    13    5    6 1
    14    5   10 1
    15    6    7 2
    16    7    8 1
    17    7   35 1
    18    8    9 1
    19    8   12 1
    20    8   49 1
    21    9   10 1
    22    9   50 1
    23    9   77 1
    24   10   11 1
    25   10   51 1
    26   12   17 ar
    27   12   13 ar
    28   13   14 ar
    29   13   52 1
    30   14   15 ar
    31   14   53 1
    32   15   16 ar
    33   15   18 1
    34   16   17 ar
    35   16   54 1
    36   17   55 1
    37   18   19 1
    38   18   56 1
    39   18   57 1
    40   19   24 1
    41   19   20 1
    42   19   76 1
    43   20   21 1
    44   20   58 1
    45   20   59 1
    46   21   22 1
    47   21   60 1
    48   21   61 1
    49   22   23 1
    50   22   25 1
    51   22   62 1
    52   23   24 1
    53   23   63 1
    54   23   64 1
    55   24   65 1
    56   24   66 1
    57   25   33 1
    58   25   26 1
    59   26   31 ar
    60   26   27 ar
    61   27   28 ar
    62   27   67 1
    63   28   29 ar
    64   28   68 1
    65   29   30 ar
    66   29   69 1
    67   30   31 ar
    68   30   70 1
    69   31   32 1
    70   32   33 2
    71   33   34 1
    72   35   40 ar
    73   35   36 ar
    74   36   37 ar
    75   36   71 1
    76   37   38 ar
    77   37   72 1
    78   38   39 ar
    79   38   73 1
    80   39   40 ar
    81   39   74 1
    82   40   75 1
@<TRIPOS>MOLECULE
CHEMBL369506
   78    83     0     0     0
SMALL
USER_CHARGES

@<TRIPOS>ATOM
      1 C1          0.6392    1.1984   -0.2893 C.3       1 <0>        -0.1441
      2 C2          0.2679   -0.2646   -0.0394 C.3       1 <0>        -0.0783
      3 C3          0.7354   -0.6779    1.3576 C.3       1 <0>        -0.1430
      4 C4         -1.2270   -0.4273   -0.1374 C.2       1 <0>        -0.0502
      5 C5         -1.7549   -1.1460   -1.1258 C.2       1 <0>        -0.0421
      6 N1         -3.0903   -1.4144   -1.1597 N.2       1 <0>        -0.4152
      7 C6         -3.6445   -1.9066   -2.2248 C.2       1 <0>         0.1797
      8 C7         -2.8704   -2.2263   -3.4707 C.3       1 <0>         0.0893
      9 N2         -1.6103   -1.4749   -3.5094 N.4       1 <0>        -0.5089
     10 C8         -0.8891   -1.6816   -2.2451 C.3       1 <0>         0.2439
     11 O1         -0.6524   -3.0773   -2.0495 O.3       1 <0>        -0.7872
     12 C9         -3.6999   -1.8655   -4.6761 C.ar      1 <0>        -0.0748
     13 C10        -3.9660   -0.5390   -4.9601 C.ar      1 <0>        -0.1059
     14 C11        -4.7268   -0.2080   -6.0657 C.ar      1 <0>        -0.0855
     15 C12        -5.2213   -1.2035   -6.8876 C.ar      1 <0>        -0.1474
     16 C13        -4.9545   -2.5299   -6.6041 C.ar      1 <0>        -0.0810
     17 C14        -4.1900   -2.8607   -5.5009 C.ar      1 <0>        -0.0824
     18 C15        -6.0516   -0.8427   -8.0923 C.3       1 <0>         0.0420
     19 N3         -5.1731   -0.6589   -9.2553 N.4       1 <0>        -0.3850
     20 C16        -4.2906    0.4907   -9.0231 C.3       1 <0>        -0.0070
     21 C17        -3.3185    0.6374  -10.1958 C.3       1 <0>        -0.1608
     22 C18        -4.1135    0.8547  -11.4865 C.3       1 <0>         0.1373
     23 C19        -5.0838   -0.3143  -11.6797 C.3       1 <0>        -0.1616
     24 C20        -5.9904   -0.4258  -10.4520 C.3       1 <0>         0.0001
     25 N4         -3.1926    0.9200  -12.6239 N.pl3     1 <0>        -0.4971
     26 C21        -3.0296    1.9895  -13.4879 C.ar      1 <0>         0.0582
     27 C22        -3.6097    3.2456  -13.5847 C.ar      1 <0>        -0.1175
     28 C23        -3.2194    4.1064  -14.5893 C.ar      1 <0>        -0.0852
     29 C24        -2.2496    3.7243  -15.5047 C.ar      1 <0>        -0.1181
     30 C25        -1.6635    2.4812  -15.4239 C.ar      1 <0>        -0.0563
     31 C26        -2.0473    1.5977  -14.4121 C.ar      1 <0>         0.0562
     32 N5         -1.6651    0.3371  -14.0776 N.2       1 <0>        -0.4675
     33 C27        -2.3321   -0.0592  -13.0251 C.2       1 <0>         0.4431
     34 O2         -2.1924   -1.2637  -12.4253 O.3       1 <0>        -0.4434
     35 C28        -5.0939   -2.1628   -2.2107 C.ar      1 <0>        -0.0525
     36 C29        -5.6221   -3.2506   -2.9129 C.ar      1 <0>        -0.0988
     37 C30        -6.9810   -3.4839   -2.8947 C.ar      1 <0>        -0.1211
     38 C31        -7.8215   -2.6449   -2.1840 C.ar      1 <0>        -0.1021
     39 C32        -7.3063   -1.5663   -1.4866 C.ar      1 <0>        -0.1207
     40 C33        -5.9490   -1.3230   -1.4902 C.ar      1 <0>        -0.0732
     41 H1          1.7205    1.3161   -0.2183 H         1 <0>         0.0647
     42 H2          0.3062    1.4929   -1.2845 H         1 <0>         0.0499
     43 H3          0.1554    1.8286    0.4570 H         1 <0>         0.0604
     44 H4          0.7517   -0.8948   -0.7856 H         1 <0>         0.0887
     45 H5          0.4709   -1.7203    1.5357 H         1 <0>         0.0605
     46 H6          1.8167   -0.5603    1.4286 H         1 <0>         0.0642
     47 H7          0.2515   -0.0478    2.1039 H         1 <0>         0.0582
     48 H8         -1.8702    0.0391    0.5941 H         1 <0>         0.1247
     49 H9         -2.6521   -3.2939   -3.4932 H         1 <0>         0.1590
     50 H10        -1.0454   -1.8020   -4.2787 H         1 <0>         0.4099
     51 H11         0.0591   -1.1446   -2.2685 H         1 <0>         0.0825
     52 H12        -3.5797    0.2387   -4.3180 H         1 <0>         0.1333
     53 H13        -4.9353    0.8282   -6.2872 H         1 <0>         0.1382
     54 H14        -5.3411   -3.3076   -7.2460 H         1 <0>         0.1407
     55 H15        -3.9784   -3.8967   -5.2814 H         1 <0>         0.1459
     56 H16        -6.7623   -1.6435   -8.2968 H         1 <0>         0.1430
     57 H17        -6.5933    0.0826   -7.8964 H         1 <0>         0.1401
     58 H18        -4.8904    1.3964   -8.9334 H         1 <0>         0.1342
     59 H19        -3.7278    0.3361   -8.1025 H         1 <0>         0.1382
     60 H20        -2.6653    1.4926  -10.0223 H         1 <0>         0.1194
     61 H21        -2.7180   -0.2677  -10.2861 H         1 <0>         0.1056
     62 H22        -4.6748    1.7864  -11.4164 H         1 <0>         0.1169
     63 H23        -5.6924   -0.1394  -12.5669 H         1 <0>         0.1233
     64 H24        -4.5199   -1.2392  -11.8009 H         1 <0>         0.0937
     65 H25        -6.6826   -1.2570  -10.5863 H         1 <0>         0.1422
     66 H26        -6.5540    0.4995  -10.3319 H         1 <0>         0.1364
     67 H27        -4.3655    3.5489  -12.8753 H         1 <0>         0.1222
     68 H28        -3.6720    5.0841  -14.6639 H         1 <0>         0.1377
     69 H29        -1.9523    4.4071  -16.2869 H         1 <0>         0.1391
     70 H30        -0.9097    2.1900  -16.1404 H         1 <0>         0.1380
     71 H31        -2.7777   -1.9484  -12.7770 H         1 <0>         0.4060
     72 H32        -4.9676   -3.9060   -3.4682 H         1 <0>         0.1208
     73 H33        -7.3906   -4.3234   -3.4369 H         1 <0>         0.1264
     74 H34        -8.8850   -2.8327   -2.1740 H         1 <0>         0.1263
     75 H35        -7.9686   -0.9158   -0.9346 H         1 <0>         0.1287
     76 H36        -5.5478   -0.4837   -0.9415 H         1 <0>         0.1298
     77 H37        -4.6139   -1.4884   -9.3875 H         1 <0>         0.4246
     78 H38        -1.8064   -0.4920   -3.6263 H         1 <0>         0.3906
@<TRIPOS>BOND
     1    1    2 1
     2    1   41 1
     3    1   42 1
     4    1   43 1
     5    2    3 1
     6    2   44 1
     7    2    4 1
     8    3   45 1
     9    3   46 1
    10    3   47 1
    11    4    5 2
    12    4   48 1
    13    5    6 1
    14    5   10 1
    15    6    7 2
    16    7    8 1
    17    7   35 1
    18    8    9 1
    19    8   12 1
    20    8   49 1
    21    9   10 1
    22    9   50 1
    23    9   78 1
    24   10   11 1
    25   10   51 1
    26   12   17 ar
    27   12   13 ar
    28   13   14 ar
    29   13   52 1
    30   14   15 ar
    31   14   53 1
    32   15   16 ar
    33   15   18 1
    34   16   17 ar
    35   16   54 1
    36   17   55 1
    37   18   19 1
    38   18   56 1
    39   18   57 1
    40   19   24 1
    41   19   20 1
    42   19   77 1
    43   20   21 1
    44   20   58 1
    45   20   59 1
    46   21   22 1
    47   21   60 1
    48   21   61 1
    49   22   23 1
    50   22   25 1
    51   22   62 1
    52   23   24 1
    53   23   63 1
    54   23   64 1
    55   24   65 1
    56   24   66 1
    57   25   33 1
    58   25   26 1
    59   26   31 ar
    60   26   27 ar
    61   27   28 ar
    62   27   67 1
    63   28   29 ar
    64   28   68 1
    65   29   30 ar
    66   29   69 1
    67   30   31 ar
    68   30   70 1
    69   31   32 1
    70   32   33 2
    71   33   34 1
    72   34   71 1
    73   35   40 ar
    74   35   36 ar
    75   36   37 ar
    76   36   72 1
    77   37   38 ar
    78   37   73 1
    79   38   39 ar
    80   38   74 1
    81   39   40 ar
    82   39   75 1
    83   40   76 1
@<TRIPOS>MOLECULE
CHEMBL369506
   78    83     0     0     0
SMALL
USER_CHARGES

@<TRIPOS>ATOM
      1 C1         -2.0640    1.6514   -1.2398 C.3       1 <0>        -0.1524
      2 C2         -1.9567    0.1452   -1.4864 C.3       1 <0>        -0.0789
      3 C3         -1.2766   -0.1038   -2.8341 C.3       1 <0>        -0.1494
      4 C4         -1.1289   -0.4964   -0.3711 C.3       1 <0>        -0.0692
      5 C5         -1.1257   -1.9933   -0.5456 C.2       1 <0>         0.1493
      6 N1         -1.7628   -2.5193   -1.5354 N.2       1 <0>        -0.4216
      7 C6         -1.8001   -3.8655   -1.7382 C.2       1 <0>         0.0386
      8 C7         -1.4352   -4.7299   -0.7268 C.2       1 <0>         0.1387
      9 N2         -1.0184   -4.1784    0.4852 N.pl3     1 <0>        -0.7333
     10 C8         -0.3722   -2.8547    0.4364 C.3       1 <0>         0.3190
     11 O1          0.9848   -2.9934    0.0105 O.3       1 <0>        -0.5653
     12 C9         -1.4847   -6.1908   -0.9204 C.ar      1 <0>        -0.0012
     13 C10        -0.3865   -6.9828   -0.5735 C.ar      1 <0>        -0.1001
     14 C11        -0.4403   -8.3485   -0.7570 C.ar      1 <0>        -0.0943
     15 C12        -1.5778   -8.9352   -1.2836 C.ar      1 <0>        -0.1603
     16 C13        -2.6689   -8.1574   -1.6299 C.ar      1 <0>        -0.0866
     17 C14        -2.6321   -6.7911   -1.4463 C.ar      1 <0>        -0.0809
     18 C15        -1.6283  -10.4283   -1.4814 C.3       1 <0>         0.0446
     19 N3         -2.1578  -11.0653   -0.2682 N.4       1 <0>        -0.3849
     20 C16        -1.2271  -10.8439    0.8449 C.3       1 <0>        -0.0063
     21 C17        -1.8120  -11.4354    2.1292 C.3       1 <0>        -0.1604
     22 C18        -2.0332  -12.9386    1.9379 C.3       1 <0>         0.1372
     23 C19        -2.9460  -13.1605    0.7285 C.3       1 <0>        -0.1611
     24 C20        -2.3190  -12.5051   -0.5039 C.3       1 <0>         0.0001
     25 N4         -2.6635  -13.4975    3.1365 N.pl3     1 <0>        -0.4966
     26 C21        -2.1429  -14.4881    3.9517 C.ar      1 <0>         0.0581
     27 C22        -0.9712  -15.2299    3.9367 C.ar      1 <0>        -0.1171
     28 C23        -0.7409  -16.1695    4.9198 C.ar      1 <0>        -0.0858
     29 C24        -1.6741  -16.3781    5.9249 C.ar      1 <0>        -0.1184
     30 C25        -2.8427  -15.6511    5.9552 C.ar      1 <0>        -0.0567
     31 C26        -3.0910  -14.6953    4.9670 C.ar      1 <0>         0.0561
     32 N5         -4.1219  -13.8420    4.7303 N.2       1 <0>        -0.4685
     33 C27        -3.8695  -13.1347    3.6599 C.2       1 <0>         0.4437
     34 O2         -4.6855  -12.1862    3.1455 O.3       1 <0>        -0.4432
     35 C28        -2.2333   -4.4023   -3.0463 C.ar      1 <0>        -0.0195
     36 C29        -3.4105   -3.9411   -3.6383 C.ar      1 <0>        -0.0912
     37 C30        -3.8087   -4.4456   -4.8589 C.ar      1 <0>        -0.1172
     38 C31        -3.0444   -5.4070   -5.4962 C.ar      1 <0>        -0.1159
     39 C32        -1.8765   -5.8685   -4.9150 C.ar      1 <0>        -0.1199
     40 C33        -1.4639   -5.3682   -3.6974 C.ar      1 <0>        -0.1066
     41 H1         -2.6538    2.1085   -2.0344 H         1 <0>         0.0577
     42 H2         -2.5486    1.8288   -0.2797 H         1 <0>         0.0537
     43 H3         -1.0662    2.0899   -1.2298 H         1 <0>         0.0553
     44 H4         -2.9546   -0.2933   -1.4965 H         1 <0>         0.0753
     45 H5         -1.2001   -1.1768   -3.0098 H         1 <0>         0.0730
     46 H6         -1.8664    0.3533   -3.6287 H         1 <0>         0.0493
     47 H7         -0.2787    0.3347   -2.8241 H         1 <0>         0.0452
     48 H8         -0.1058   -0.1231   -0.4172 H         1 <0>         0.0928
     49 H9         -1.5644   -0.2443    0.5957 H         1 <0>         0.0872
     50 H10        -1.1467   -4.6484    1.3240 H         1 <0>         0.4070
     51 H11        -0.4037   -2.3963    1.4248 H         1 <0>         0.1023
     52 H12         1.5278   -3.5367    0.5980 H         1 <0>         0.3793
     53 H13         0.5021   -6.5263   -0.1631 H         1 <0>         0.1346
     54 H14         0.4075   -8.9618   -0.4894 H         1 <0>         0.1332
     55 H15        -3.5529   -8.6221   -2.0409 H         1 <0>         0.1345
     56 H16        -3.4860   -6.1859   -1.7128 H         1 <0>         0.1385
     57 H17        -2.2763  -10.6611   -2.3264 H         1 <0>         0.1402
     58 H18        -0.6241  -10.8027   -1.6796 H         1 <0>         0.1375
     59 H19        -0.2753  -11.3269    0.6236 H         1 <0>         0.1331
     60 H20        -1.0682   -9.7738    0.9778 H         1 <0>         0.1395
     61 H21        -1.1187  -11.2716    2.9542 H         1 <0>         0.1186
     62 H22        -2.7638  -10.9529    2.3516 H         1 <0>         0.1050
     63 H23        -1.0750  -13.4290    1.7662 H         1 <0>         0.1168
     64 H24        -3.0632  -14.2297    0.5521 H         1 <0>         0.1226
     65 H25        -3.9213  -12.7138    0.9218 H         1 <0>         0.0933
     66 H26        -2.9663  -12.6613   -1.3669 H         1 <0>         0.1413
     67 H27        -1.3439  -12.9526   -0.6965 H         1 <0>         0.1357
     68 H28        -0.2409  -15.0725    3.1567 H         1 <0>         0.1222
     69 H29         0.1717  -16.7469    4.9069 H         1 <0>         0.1376
     70 H30        -1.4824  -17.1167    6.6893 H         1 <0>         0.1389
     71 H31        -3.5652  -15.8192    6.7402 H         1 <0>         0.1377
     72 H32        -5.3222  -12.5230    2.5003 H         1 <0>         0.4060
     73 H33        -4.0084   -3.1912   -3.1416 H         1 <0>         0.1263
     74 H34        -4.7192   -4.0897   -5.3179 H         1 <0>         0.1256
     75 H35        -3.3609   -5.7993   -6.4513 H         1 <0>         0.1226
     76 H36        -1.2847   -6.6193   -5.4175 H         1 <0>         0.1203
     77 H37        -0.5498   -5.7259   -3.2470 H         1 <0>         0.1134
     78 H38        -3.0536  -10.6604   -0.0406 H         1 <0>         0.4243
@<TRIPOS>BOND
     1    1    2 1
     2    1   41 1
     3    1   42 1
     4    1   43 1
     5    2    3 1
     6    2    4 1
     7    2   44 1
     8    3   45 1
     9    3   46 1
    10    3   47 1
    11    4    5 1
    12    4   48 1
    13    4   49 1
    14    5   10 1
    15    5    6 2
    16    6    7 1
    17    7    8 2
    18    7   35 1
    19    8    9 1
    20    8   12 1
    21    9   10 1
    22    9   50 1
    23   10   11 1
    24   10   51 1
    25   11   52 1
    26   12   17 ar
    27   12   13 ar
    28   13   14 ar
    29   13   53 1
    30   14   15 ar
    31   14   54 1
    32   15   16 ar
    33   15   18 1
    34   16   17 ar
    35   16   55 1
    36   17   56 1
    37   18   19 1
    38   18   57 1
    39   18   58 1
    40   19   24 1
    41   19   20 1
    42   19   78 1
    43   20   21 1
    44   20   59 1
    45   20   60 1
    46   21   22 1
    47   21   61 1
    48   21   62 1
    49   22   23 1
    50   22   25 1
    51   22   63 1
    52   23   24 1
    53   23   64 1
    54   23   65 1
    55   24   66 1
    56   24   67 1
    57   25   33 1
    58   25   26 1
    59   26   31 ar
    60   26   27 ar
    61   27   28 ar
    62   27   68 1
    63   28   29 ar
    64   28   69 1
    65   29   30 ar
    66   29   70 1
    67   30   31 ar
    68   30   71 1
    69   31   32 1
    70   32   33 2
    71   33   34 1
    72   34   72 1
    73   35   40 ar
    74   35   36 ar
    75   36   37 ar
    76   36   73 1
    77   37   38 ar
    78   37   74 1
    79   38   39 ar
    80   38   75 1
    81   39   40 ar
    82   39   76 1
    83   40   77 1
@<TRIPOS>MOLECULE
CHEMBL369506
   77    82     0     0     0
SMALL
USER_CHARGES

@<TRIPOS>ATOM
      1 C1          0.5641    1.6134   -0.9006 C.3       1 <0>        -0.1413
      2 C2          0.5737    0.0905   -0.7540 C.3       1 <0>        -0.0751
      3 C3          1.5460   -0.3087    0.3578 C.3       1 <0>        -0.1454
      4 C4         -0.8118   -0.3894   -0.4059 C.2       1 <0>        -0.0609
      5 C5         -1.4787   -1.1692   -1.2538 C.2       1 <0>        -0.0363
      6 N1         -2.7795   -1.5024   -1.0227 N.2       1 <0>        -0.4223
      7 C6         -3.3603   -2.4376   -1.7096 C.2       1 <0>         0.1897
      8 C7         -2.6630   -3.1982   -2.8000 C.3       1 <0>         0.0910
      9 N2         -1.2061   -3.1228   -2.6394 N.4       1 <0>        -0.5132
     10 C8         -0.8146   -1.7044   -2.5035 C.3       1 <0>         0.2465
     11 O1         -1.2570   -0.9638   -3.6428 O.3       1 <0>        -0.7884
     12 C9         -3.0932   -4.6417   -2.7507 C.ar      1 <0>        -0.0818
     13 C10        -2.6643   -5.4559   -1.7192 C.ar      1 <0>        -0.1087
     14 C11        -3.0589   -6.7799   -1.6740 C.ar      1 <0>        -0.0846
     15 C12        -3.8827   -7.2897   -2.6601 C.ar      1 <0>        -0.1391
     16 C13        -4.3123   -6.4753   -3.6911 C.ar      1 <0>        -0.0809
     17 C14        -3.9212   -5.1501   -3.7340 C.ar      1 <0>        -0.0818
     18 C15        -4.3120   -8.7334   -2.6113 C.3       1 <0>         0.0410
     19 N3         -5.5635   -8.8467   -1.8505 N.4       1 <0>        -0.3826
     20 C16        -5.3235   -8.4569   -0.4559 C.3       1 <0>        -0.0030
     21 C17        -6.6405   -8.4952    0.3223 C.3       1 <0>        -0.1601
     22 C18        -7.2117   -9.9154    0.2786 C.3       1 <0>         0.1625
     23 C19        -7.3883  -10.3394   -1.1823 C.3       1 <0>        -0.1634
     24 C20        -6.0436  -10.2327   -1.9047 C.3       1 <0>         0.0029
     25 N4         -8.5100   -9.9423    0.9569 N.pl3     1 <0>        -0.5386
     26 C21        -8.8408  -10.7010    2.0668 C.ar      1 <0>         0.0031
     27 C22        -8.1476  -11.6088    2.8534 C.ar      1 <0>        -0.1062
     28 C23        -8.7780  -12.2142    3.9204 C.ar      1 <0>        -0.1592
     29 C24       -10.1021  -11.9213    4.2128 C.ar      1 <0>        -0.1194
     30 C25       -10.8055  -11.0231    3.4424 C.ar      1 <0>        -0.1176
     31 C26       -10.1815  -10.4008    2.3584 C.ar      1 <0>         0.1144
     32 N5        -10.5973   -9.4944    1.4350 N.2       1 <0>        -0.6056
     33 C27        -9.6156   -9.2203    0.6159 C.2       1 <0>         0.5595
     34 O2         -9.6873   -8.3521   -0.4191 O.3       1 <0>        -0.7045
     35 C28        -4.7625   -2.7670   -1.4065 C.ar      1 <0>        -0.0574
     36 C29        -5.2310   -2.7017   -0.0906 C.ar      1 <0>        -0.0735
     37 C30        -6.5460   -3.0119    0.1854 C.ar      1 <0>        -0.1211
     38 C31        -7.4013   -3.3871   -0.8359 C.ar      1 <0>        -0.0955
     39 C32        -6.9450   -3.4541   -2.1408 C.ar      1 <0>        -0.1211
     40 C33        -5.6343   -3.1413   -2.4337 C.ar      1 <0>        -0.0985
     41 H1          1.5662    1.9605   -1.1524 H         1 <0>         0.0621
     42 H2         -0.1287    1.8978   -1.6927 H         1 <0>         0.0614
     43 H3          0.2478    2.0669    0.0388 H         1 <0>         0.0569
     44 H4          0.8899   -0.3630   -1.6934 H         1 <0>         0.0858
     45 H5          1.5529   -1.3936    0.4623 H         1 <0>         0.0521
     46 H6          2.5481    0.0384    0.1060 H         1 <0>         0.0623
     47 H7          1.2298    0.1448    1.2972 H         1 <0>         0.0593
     48 H8         -1.2636   -0.1006    0.5316 H         1 <0>         0.1234
     49 H9         -2.9397   -2.7752   -3.7657 H         1 <0>         0.1584
     50 H10        -0.9305   -3.6328   -1.8136 H         1 <0>         0.3920
     51 H11         0.2685   -1.6269   -2.4089 H         1 <0>         0.0813
     52 H12        -2.0207   -5.0576   -0.9488 H         1 <0>         0.1305
     53 H13        -2.7232   -7.4162   -0.8685 H         1 <0>         0.1383
     54 H14        -4.9556   -6.8736   -4.4617 H         1 <0>         0.1410
     55 H15        -4.2599   -4.5128   -4.5375 H         1 <0>         0.1439
     56 H16        -4.4690   -9.1002   -3.6257 H         1 <0>         0.1383
     57 H17        -3.5369   -9.3268   -2.1263 H         1 <0>         0.1359
     58 H18        -4.6139   -9.1491   -0.0026 H         1 <0>         0.1246
     59 H19        -4.9139   -7.4472   -0.4266 H         1 <0>         0.1284
     60 H20        -6.4598   -8.2073    1.3579 H         1 <0>         0.1066
     61 H21        -7.3508   -7.8031   -0.1300 H         1 <0>         0.1134
     62 H22        -6.5249  -10.6000    0.7764 H         1 <0>         0.0872
     63 H23        -7.7422  -11.3696   -1.2221 H         1 <0>         0.1088
     64 H24        -8.1141   -9.6855   -1.6658 H         1 <0>         0.1137
     65 H25        -6.1657  -10.5340   -2.9451 H         1 <0>         0.1308
     66 H26        -5.3187  -10.8871   -1.4206 H         1 <0>         0.1262
     67 H27        -7.1167  -11.8414    2.6308 H         1 <0>         0.0986
     68 H28        -8.2374  -12.9213    4.5321 H         1 <0>         0.1124
     69 H29       -10.5848  -12.4018    5.0509 H         1 <0>         0.1143
     70 H30       -11.8363  -10.8002    3.6753 H         1 <0>         0.1158
     71 H31        -4.5647   -2.4095    0.7075 H         1 <0>         0.1279
     72 H32        -6.9093   -2.9623    1.2013 H         1 <0>         0.1283
     73 H33        -8.4300   -3.6291   -0.6134 H         1 <0>         0.1295
     74 H34        -7.6184   -3.7480   -2.9324 H         1 <0>         0.1274
     75 H35        -5.2810   -3.1894   -3.4531 H         1 <0>         0.1211
     76 H36        -6.2576   -8.2354   -2.2537 H         1 <0>         0.4280
     77 H37        -0.7559   -3.5207   -3.4500 H         1 <0>         0.4105
@<TRIPOS>BOND
     1    1    2 1
     2    1   41 1
     3    1   42 1
     4    1   43 1
     5    2    3 1
     6    2   44 1
     7    2    4 1
     8    3   45 1
     9    3   46 1
    10    3   47 1
    11    4    5 2
    12    4   48 1
    13    5    6 1
    14    5   10 1
    15    6    7 2
    16    7    8 1
    17    7   35 1
    18    8    9 1
    19    8   12 1
    20    8   49 1
    21    9   10 1
    22    9   50 1
    23    9   77 1
    24   10   11 1
    25   10   51 1
    26   12   17 ar
    27   12   13 ar
    28   13   14 ar
    29   13   52 1
    30   14   15 ar
    31   14   53 1
    32   15   16 ar
    33   15   18 1
    34   16   17 ar
    35   16   54 1
    36   17   55 1
    37   18   19 1
    38   18   56 1
    39   18   57 1
    40   19   24 1
    41   19   20 1
    42   19   76 1
    43   20   21 1
    44   20   58 1
    45   20   59 1
    46   21   22 1
    47   21   60 1
    48   21   61 1
    49   22   23 1
    50   22   25 1
    51   22   62 1
    52   23   24 1
    53   23   63 1
    54   23   64 1
    55   24   65 1
    56   24   66 1
    57   25   33 1
    58   25   26 1
    59   26   31 ar
    60   26   27 ar
    61   27   28 ar
    62   27   67 1
    63   28   29 ar
    64   28   68 1
    65   29   30 ar
    66   29   69 1
    67   30   31 ar
    68   30   70 1
    69   31   32 1
    70   32   33 2
    71   33   34 1
    72   35   40 ar
    73   35   36 ar
    74   36   37 ar
    75   36   71 1
    76   37   38 ar
    77   37   72 1
    78   38   39 ar
    79   38   73 1
    80   39   40 ar
    81   39   74 1
    82   40   75 1
@<TRIPOS>MOLECULE
CHEMBL369506
   77    82     0     0     0
SMALL
USER_CHARGES

@<TRIPOS>ATOM
      1 C1         -0.3292    1.6445    0.0855 C.3       1 <0>        -0.1411
      2 C2         -0.1817    0.1227    0.0296 C.3       1 <0>        -0.0733
      3 C3          0.6238   -0.3564    1.2390 C.3       1 <0>        -0.1436
      4 C4         -1.5468   -0.5155    0.0506 C.2       1 <0>        -0.0602
      5 C5         -1.9372   -1.2855   -0.9626 C.2       1 <0>        -0.0379
      6 N1         -1.1174   -1.5091   -2.0277 N.2       1 <0>        -0.4177
      7 C6         -1.5692   -2.0589   -3.1128 C.2       1 <0>         0.1886
      8 C7         -2.9968   -2.4962   -3.2694 C.3       1 <0>         0.0913
      9 N2         -3.8652   -1.7939   -2.3172 N.4       1 <0>        -0.5127
     10 C8         -3.3007   -1.9412   -0.9595 C.3       1 <0>         0.2534
     11 O1         -3.1720   -3.3260   -0.6312 O.3       1 <0>        -0.7894
     12 C9         -3.4559   -2.1966   -4.6732 C.ar      1 <0>        -0.0818
     13 C10        -3.6586   -0.8879   -5.0696 C.ar      1 <0>        -0.1081
     14 C11        -4.0797   -0.6130   -6.3572 C.ar      1 <0>        -0.0848
     15 C12        -4.2977   -1.6469   -7.2486 C.ar      1 <0>        -0.1390
     16 C13        -4.0942   -2.9555   -6.8525 C.ar      1 <0>        -0.0811
     17 C14        -3.6689   -3.2301   -5.5661 C.ar      1 <0>        -0.0820
     18 C15        -4.7578   -1.3473   -8.6520 C.3       1 <0>         0.0410
     19 N3         -3.5884   -1.1701   -9.5233 N.4       1 <0>        -0.3826
     20 C16        -2.8338    0.0128   -9.0923 C.3       1 <0>        -0.0030
     21 C17        -1.5712    0.1556   -9.9450 C.3       1 <0>        -0.1599
     22 C18        -1.9698    0.3104  -11.4155 C.3       1 <0>         0.1625
     23 C19        -2.8193   -0.8934  -11.8334 C.3       1 <0>        -0.1634
     24 C20        -4.0356   -0.9973  -10.9107 C.3       1 <0>         0.0030
     25 N4         -0.7645    0.3714  -12.2460 N.pl3     1 <0>        -0.5386
     26 C21        -0.3852    1.4199  -13.0667 C.ar      1 <0>         0.0032
     27 C22        -0.9406    2.6539  -13.3704 C.ar      1 <0>        -0.1062
     28 C23        -0.2988    3.4969  -14.2535 C.ar      1 <0>        -0.1592
     29 C24         0.8997    3.1188  -14.8410 C.ar      1 <0>        -0.1195
     30 C25         1.4651    1.8975  -14.5514 C.ar      1 <0>        -0.1175
     31 C26         0.8280    1.0322  -13.6586 C.ar      1 <0>         0.1143
     32 N5          1.1262   -0.2056  -13.1832 N.2       1 <0>        -0.6056
     33 C27         0.1955   -0.5918  -12.3499 C.2       1 <0>         0.5595
     34 O2          0.1845   -1.7734  -11.6913 O.3       1 <0>        -0.7045
     35 C28        -0.6426   -2.2620   -4.2383 C.ar      1 <0>        -0.0565
     36 C29         0.3786   -1.3387   -4.4831 C.ar      1 <0>        -0.0736
     37 C30         1.2427   -1.5359   -5.5395 C.ar      1 <0>        -0.1211
     38 C31         1.1012   -2.6441   -6.3563 C.ar      1 <0>        -0.0959
     39 C32         0.0929   -3.5624   -6.1205 C.ar      1 <0>        -0.1209
     40 C33        -0.7755   -3.3822   -5.0646 C.ar      1 <0>        -0.0991
     41 H1          0.6581    2.1061    0.0703 H         1 <0>         0.0608
     42 H2         -0.9031    1.9858   -0.7761 H         1 <0>         0.0507
     43 H3         -0.8478    1.9259    1.0020 H         1 <0>         0.0559
     44 H4          0.3368   -0.1587   -0.8869 H         1 <0>         0.0930
     45 H5          0.7289   -1.4406    1.1992 H         1 <0>         0.0568
     46 H6          1.6112    0.1052    1.2238 H         1 <0>         0.0600
     47 H7          0.1053   -0.0750    2.1555 H         1 <0>         0.0552
     48 H8         -2.2083   -0.3480    0.8877 H         1 <0>         0.1256
     49 H9         -3.0645   -3.5695   -3.0922 H         1 <0>         0.1579
     50 H10        -3.9134   -0.8161   -2.5617 H         1 <0>         0.3926
     51 H11        -3.9471   -1.4470   -0.2343 H         1 <0>         0.0744
     52 H12        -3.4882   -0.0801   -4.3732 H         1 <0>         0.1307
     53 H13        -4.2387    0.4094   -6.6667 H         1 <0>         0.1381
     54 H14        -4.2649   -3.7632   -7.5488 H         1 <0>         0.1409
     55 H15        -3.5063   -4.2523   -5.2577 H         1 <0>         0.1439
     56 H16        -5.3632   -2.1754   -9.0205 H         1 <0>         0.1382
     57 H17        -5.3528   -0.4340   -8.6522 H         1 <0>         0.1358
     58 H18        -3.4537    0.9016   -9.2101 H         1 <0>         0.1246
     59 H19        -2.5536   -0.0974   -8.0447 H         1 <0>         0.1285
     60 H20        -1.0132    1.0354   -9.6246 H         1 <0>         0.1066
     61 H21        -0.9504   -0.7326   -9.8277 H         1 <0>         0.1134
     62 H22        -2.5478    1.2259  -11.5421 H         1 <0>         0.0871
     63 H23        -3.1533   -0.7634  -12.8627 H         1 <0>         0.1087
     64 H24        -2.2243   -1.8033  -11.7553 H         1 <0>         0.1137
     65 H25        -4.6426   -1.8533  -11.2056 H         1 <0>         0.1308
     66 H26        -4.6299   -0.0870  -10.9897 H         1 <0>         0.1262
     67 H27        -1.8736    2.9540  -12.9166 H         1 <0>         0.0986
     68 H28        -0.7324    4.4575  -14.4896 H         1 <0>         0.1124
     69 H29         1.3927    3.7876  -15.5310 H         1 <0>         0.1143
     70 H30         2.3980    1.6093  -15.0129 H         1 <0>         0.1158
     71 H31         0.4901   -0.4732   -3.8468 H         1 <0>         0.1280
     72 H32         2.0317   -0.8235   -5.7301 H         1 <0>         0.1280
     73 H33         1.7808   -2.7929   -7.1824 H         1 <0>         0.1292
     74 H34        -0.0114   -4.4245   -6.7625 H         1 <0>         0.1271
     75 H35        -1.5588   -4.1022   -4.8788 H         1 <0>         0.1210
     76 H36        -2.9970   -1.9851   -9.4607 H         1 <0>         0.4280
     77 H37        -4.7901   -2.1962   -2.3433 H         1 <0>         0.4106
@<TRIPOS>BOND
     1    1    2 1
     2    1   41 1
     3    1   42 1
     4    1   43 1
     5    2    3 1
     6    2   44 1
     7    2    4 1
     8    3   45 1
     9    3   46 1
    10    3   47 1
    11    4    5 2
    12    4   48 1
    13    5    6 1
    14    5   10 1
    15    6    7 2
    16    7    8 1
    17    7   35 1
    18    8    9 1
    19    8   12 1
    20    8   49 1
    21    9   10 1
    22    9   50 1
    23    9   77 1
    24   10   11 1
    25   10   51 1
    26   12   17 ar
    27   12   13 ar
    28   13   14 ar
    29   13   52 1
    30   14   15 ar
    31   14   53 1
    32   15   16 ar
    33   15   18 1
    34   16   17 ar
    35   16   54 1
    36   17   55 1
    37   18   19 1
    38   18   56 1
    39   18   57 1
    40   19   24 1
    41   19   20 1
    42   19   76 1
    43   20   21 1
    44   20   58 1
    45   20   59 1
    46   21   22 1
    47   21   60 1
    48   21   61 1
    49   22   23 1
    50   22   25 1
    51   22   62 1
    52   23   24 1
    53   23   63 1
    54   23   64 1
    55   24   65 1
    56   24   66 1
    57   25   33 1
    58   25   26 1
    59   26   31 ar
    60   26   27 ar
    61   27   28 ar
    62   27   67 1
    63   28   29 ar
    64   28   68 1
    65   29   30 ar
    66   29   69 1
    67   30   31 ar
    68   30   70 1
    69   31   32 1
    70   32   33 2
    71   33   34 1
    72   35   40 ar
    73   35   36 ar
    74   36   37 ar
    75   36   71 1
    76   37   38 ar
    77   37   72 1
    78   38   39 ar
    79   38   73 1
    80   39   40 ar
    81   39   74 1
    82   40   75 1
@<TRIPOS>MOLECULE
CHEMBL369506
   78    83     0     0     0
SMALL
USER_CHARGES

@<TRIPOS>ATOM
      1 C1          0.5641    1.6134   -0.9006 C.3       1 <0>        -0.1422
      2 C2          0.5737    0.0905   -0.7540 C.3       1 <0>        -0.0770
      3 C3          1.5460   -0.3087    0.3578 C.3       1 <0>        -0.1460
      4 C4         -0.8118   -0.3894   -0.4059 C.2       1 <0>        -0.0483
      5 C5         -1.4787   -1.1692   -1.2538 C.2       1 <0>        -0.0444
      6 N1         -2.7795   -1.5024   -1.0227 N.2       1 <0>        -0.4131
      7 C6         -3.3603   -2.4376   -1.7096 C.2       1 <0>         0.1767
      8 C7         -2.6630   -3.1982   -2.8000 C.3       1 <0>         0.0899
      9 N2         -1.2061   -3.1228   -2.6394 N.4       1 <0>        -0.5134
     10 C8         -0.8146   -1.7044   -2.5035 C.3       1 <0>         0.2460
     11 O1         -1.2570   -0.9638   -3.6428 O.3       1 <0>        -0.7851
     12 C9         -3.0932   -4.6417   -2.7507 C.ar      1 <0>        -0.0746
     13 C10        -2.6643   -5.4559   -1.7192 C.ar      1 <0>        -0.1074
     14 C11        -3.0589   -6.7799   -1.6740 C.ar      1 <0>        -0.0855
     15 C12        -3.8827   -7.2897   -2.6601 C.ar      1 <0>        -0.1480
     16 C13        -4.3123   -6.4753   -3.6911 C.ar      1 <0>        -0.0808
     17 C14        -3.9212   -5.1501   -3.7340 C.ar      1 <0>        -0.0814
     18 C15        -4.3120   -8.7334   -2.6113 C.3       1 <0>         0.0421
     19 N3         -5.5635   -8.8467   -1.8505 N.4       1 <0>        -0.3849
     20 C16        -5.3235   -8.4569   -0.4559 C.3       1 <0>        -0.0074
     21 C17        -6.6405   -8.4952    0.3223 C.3       1 <0>        -0.1601
     22 C18        -7.2117   -9.9154    0.2786 C.3       1 <0>         0.1374
     23 C19        -7.3883  -10.3394   -1.1823 C.3       1 <0>        -0.1615
     24 C20        -6.0436  -10.2327   -1.9047 C.3       1 <0>         0.0001
     25 N4         -8.5100   -9.9423    0.9569 N.pl3     1 <0>        -0.4967
     26 C21        -8.8408  -10.7010    2.0668 C.ar      1 <0>         0.0582
     27 C22        -8.1476  -11.6088    2.8534 C.ar      1 <0>        -0.1174
     28 C23        -8.7780  -12.2142    3.9204 C.ar      1 <0>        -0.0857
     29 C24       -10.1021  -11.9213    4.2128 C.ar      1 <0>        -0.1183
     30 C25       -10.8055  -11.0231    3.4424 C.ar      1 <0>        -0.0565
     31 C26       -10.1815  -10.4008    2.3584 C.ar      1 <0>         0.0564
     32 N5        -10.5973   -9.4944    1.4350 N.2       1 <0>        -0.4679
     33 C27        -9.6156   -9.2203    0.6159 C.2       1 <0>         0.4440
     34 O2         -9.6873   -8.3521   -0.4191 O.3       1 <0>        -0.4425
     35 C28        -4.7625   -2.7670   -1.4065 C.ar      1 <0>        -0.0485
     36 C29        -5.2310   -2.7017   -0.0906 C.ar      1 <0>        -0.0738
     37 C30        -6.5460   -3.0119    0.1854 C.ar      1 <0>        -0.1214
     38 C31        -7.4013   -3.3871   -0.8359 C.ar      1 <0>        -0.1040
     39 C32        -6.9450   -3.4541   -2.1408 C.ar      1 <0>        -0.1232
     40 C33        -5.6343   -3.1413   -2.4337 C.ar      1 <0>        -0.0995
     41 H1          1.5662    1.9605   -1.1524 H         1 <0>         0.0645
     42 H2         -0.1287    1.8978   -1.6927 H         1 <0>         0.0618
     43 H3          0.2478    2.0669    0.0388 H         1 <0>         0.0578
     44 H4          0.8899   -0.3630   -1.6934 H         1 <0>         0.0868
     45 H5          1.5529   -1.3936    0.4623 H         1 <0>         0.0518
     46 H6          2.5481    0.0384    0.1060 H         1 <0>         0.0645
     47 H7          1.2298    0.1448    1.2972 H         1 <0>         0.0602
     48 H8         -1.2636   -0.1006    0.5316 H         1 <0>         0.1246
     49 H9         -2.9397   -2.7752   -3.7657 H         1 <0>         0.1588
     50 H10        -0.9305   -3.6328   -1.8136 H         1 <0>         0.3915
     51 H11         0.2685   -1.6269   -2.4089 H         1 <0>         0.0839
     52 H12        -2.0207   -5.0576   -0.9488 H         1 <0>         0.1327
     53 H13        -2.7232   -7.4162   -0.8685 H         1 <0>         0.1382
     54 H14        -4.9556   -6.8736   -4.4617 H         1 <0>         0.1407
     55 H15        -4.2599   -4.5128   -4.5375 H         1 <0>         0.1458
     56 H16        -4.4690   -9.1002   -3.6257 H         1 <0>         0.1425
     57 H17        -3.5369   -9.3268   -2.1263 H         1 <0>         0.1397
     58 H18        -4.6139   -9.1491   -0.0026 H         1 <0>         0.1334
     59 H19        -4.9139   -7.4472   -0.4266 H         1 <0>         0.1395
     60 H20        -6.4598   -8.2073    1.3579 H         1 <0>         0.1194
     61 H21        -7.3508   -7.8031   -0.1300 H         1 <0>         0.1067
     62 H22        -6.5249  -10.6000    0.7764 H         1 <0>         0.1164
     63 H23        -7.7422  -11.3696   -1.2221 H         1 <0>         0.1231
     64 H24        -8.1141   -9.6855   -1.6658 H         1 <0>         0.0939
     65 H25        -6.1657  -10.5340   -2.9451 H         1 <0>         0.1418
     66 H26        -5.3187  -10.8871   -1.4206 H         1 <0>         0.1362
     67 H27        -7.1167  -11.8414    2.6308 H         1 <0>         0.1220
     68 H28        -8.2374  -12.9213    4.5321 H         1 <0>         0.1374
     69 H29       -10.5848  -12.4018    5.0509 H         1 <0>         0.1388
     70 H30       -11.8363  -10.8002    3.6753 H         1 <0>         0.1377
     71 H31        -9.9720   -8.7544   -1.2510 H         1 <0>         0.4055
     72 H32        -4.5647   -2.4095    0.7075 H         1 <0>         0.1295
     73 H33        -6.9093   -2.9623    1.2013 H         1 <0>         0.1277
     74 H34        -8.4300   -3.6291   -0.6134 H         1 <0>         0.1257
     75 H35        -7.6184   -3.7480   -2.9324 H         1 <0>         0.1260
     76 H36        -5.2810   -3.1894   -3.4531 H         1 <0>         0.1225
     77 H37        -6.2576   -8.2354   -2.2537 H         1 <0>         0.4251
     78 H38        -0.7559   -3.5207   -3.4500 H         1 <0>         0.4113
@<TRIPOS>BOND
     1    1    2 1
     2    1   41 1
     3    1   42 1
     4    1   43 1
     5    2    3 1
     6    2   44 1
     7    2    4 1
     8    3   45 1
     9    3   46 1
    10    3   47 1
    11    4    5 2
    12    4   48 1
    13    5    6 1
    14    5   10 1
    15    6    7 2
    16    7    8 1
    17    7   35 1
    18    8    9 1
    19    8   12 1
    20    8   49 1
    21    9   10 1
    22    9   50 1
    23    9   78 1
    24   10   11 1
    25   10   51 1
    26   12   17 ar
    27   12   13 ar
    28   13   14 ar
    29   13   52 1
    30   14   15 ar
    31   14   53 1
    32   15   16 ar
    33   15   18 1
    34   16   17 ar
    35   16   54 1
    36   17   55 1
    37   18   19 1
    38   18   56 1
    39   18   57 1
    40   19   24 1
    41   19   20 1
    42   19   77 1
    43   20   21 1
    44   20   58 1
    45   20   59 1
    46   21   22 1
    47   21   60 1
    48   21   61 1
    49   22   23 1
    50   22   25 1
    51   22   62 1
    52   23   24 1
    53   23   63 1
    54   23   64 1
    55   24   65 1
    56   24   66 1
    57   25   33 1
    58   25   26 1
    59   26   31 ar
    60   26   27 ar
    61   27   28 ar
    62   27   67 1
    63   28   29 ar
    64   28   68 1
    65   29   30 ar
    66   29   69 1
    67   30   31 ar
    68   30   70 1
    69   31   32 1
    70   32   33 2
    71   33   34 1
    72   34   71 1
    73   35   40 ar
    74   35   36 ar
    75   36   37 ar
    76   36   72 1
    77   37   38 ar
    78   37   73 1
    79   38   39 ar
    80   38   74 1
    81   39   40 ar
    82   39   75 1
    83   40   76 1
@<TRIPOS>MOLECULE
CHEMBL369506
   78    83     0     0     0
SMALL
USER_CHARGES

@<TRIPOS>ATOM
      1 C1         -0.3292    1.6445    0.0855 C.3       1 <0>        -0.1417
      2 C2         -0.1817    0.1227    0.0296 C.3       1 <0>        -0.0740
      3 C3          0.6238   -0.3564    1.2390 C.3       1 <0>        -0.1450
      4 C4         -1.5468   -0.5155    0.0506 C.2       1 <0>        -0.0490
      5 C5         -1.9372   -1.2855   -0.9626 C.2       1 <0>        -0.0452
      6 N1         -1.1174   -1.5091   -2.0277 N.2       1 <0>        -0.4086
      7 C6         -1.5692   -2.0589   -3.1128 C.2       1 <0>         0.1757
      8 C7         -2.9968   -2.4962   -3.2694 C.3       1 <0>         0.0900
      9 N2         -3.8652   -1.7939   -2.3172 N.4       1 <0>        -0.5128
     10 C8         -3.3007   -1.9412   -0.9595 C.3       1 <0>         0.2528
     11 O1         -3.1720   -3.3260   -0.6312 O.3       1 <0>        -0.7860
     12 C9         -3.4559   -2.1966   -4.6732 C.ar      1 <0>        -0.0746
     13 C10        -3.6586   -0.8879   -5.0696 C.ar      1 <0>        -0.1068
     14 C11        -4.0797   -0.6130   -6.3572 C.ar      1 <0>        -0.0856
     15 C12        -4.2977   -1.6469   -7.2486 C.ar      1 <0>        -0.1478
     16 C13        -4.0942   -2.9555   -6.8525 C.ar      1 <0>        -0.0809
     17 C14        -3.6689   -3.2301   -5.5661 C.ar      1 <0>        -0.0816
     18 C15        -4.7578   -1.3473   -8.6520 C.3       1 <0>         0.0421
     19 N3         -3.5884   -1.1701   -9.5233 N.4       1 <0>        -0.3849
     20 C16        -2.8338    0.0128   -9.0923 C.3       1 <0>        -0.0074
     21 C17        -1.5712    0.1556   -9.9450 C.3       1 <0>        -0.1600
     22 C18        -1.9698    0.3104  -11.4155 C.3       1 <0>         0.1374
     23 C19        -2.8193   -0.8934  -11.8334 C.3       1 <0>        -0.1615
     24 C20        -4.0356   -0.9973  -10.9107 C.3       1 <0>         0.0001
     25 N4         -0.7645    0.3714  -12.2460 N.pl3     1 <0>        -0.4967
     26 C21        -0.3852    1.4199  -13.0667 C.ar      1 <0>         0.0583
     27 C22        -0.9406    2.6539  -13.3704 C.ar      1 <0>        -0.1174
     28 C23        -0.2988    3.4969  -14.2535 C.ar      1 <0>        -0.0857
     29 C24         0.8997    3.1188  -14.8410 C.ar      1 <0>        -0.1183
     30 C25         1.4651    1.8975  -14.5514 C.ar      1 <0>        -0.0564
     31 C26         0.8280    1.0322  -13.6586 C.ar      1 <0>         0.0563
     32 N5          1.1262   -0.2056  -13.1832 N.2       1 <0>        -0.4679
     33 C27         0.1955   -0.5918  -12.3499 C.2       1 <0>         0.4440
     34 O2          0.1845   -1.7734  -11.6913 O.3       1 <0>        -0.4425
     35 C28        -0.6426   -2.2620   -4.2383 C.ar      1 <0>        -0.0476
     36 C29         0.3786   -1.3387   -4.4831 C.ar      1 <0>        -0.0738
     37 C30         1.2427   -1.5359   -5.5395 C.ar      1 <0>        -0.1212
     38 C31         1.1012   -2.6441   -6.3563 C.ar      1 <0>        -0.1044
     39 C32         0.0929   -3.5624   -6.1205 C.ar      1 <0>        -0.1231
     40 C33        -0.7755   -3.3822   -5.0646 C.ar      1 <0>        -0.1001
     41 H1          0.6581    2.1061    0.0703 H         1 <0>         0.0620
     42 H2         -0.9031    1.9858   -0.7761 H         1 <0>         0.0500
     43 H3         -0.8478    1.9259    1.0020 H         1 <0>         0.0579
     44 H4          0.3368   -0.1587   -0.8869 H         1 <0>         0.0920
     45 H5          0.7289   -1.4406    1.1992 H         1 <0>         0.0573
     46 H6          1.6112    0.1052    1.2238 H         1 <0>         0.0615
     47 H7          0.1053   -0.0750    2.1555 H         1 <0>         0.0573
     48 H8         -2.2083   -0.3480    0.8877 H         1 <0>         0.1283
     49 H9         -3.0645   -3.5695   -3.0922 H         1 <0>         0.1584
     50 H10        -3.9134   -0.8161   -2.5617 H         1 <0>         0.3921
     51 H11        -3.9471   -1.4470   -0.2343 H         1 <0>         0.0772
     52 H12        -3.4882   -0.0801   -4.3732 H         1 <0>         0.1330
     53 H13        -4.2387    0.4094   -6.6667 H         1 <0>         0.1380
     54 H14        -4.2649   -3.7632   -7.5488 H         1 <0>         0.1406
     55 H15        -3.5063   -4.2523   -5.2577 H         1 <0>         0.1457
     56 H16        -5.3632   -2.1754   -9.0205 H         1 <0>         0.1425
     57 H17        -5.3528   -0.4340   -8.6522 H         1 <0>         0.1396
     58 H18        -3.4537    0.9016   -9.2101 H         1 <0>         0.1334
     59 H19        -2.5536   -0.0974   -8.0447 H         1 <0>         0.1396
     60 H20        -1.0132    1.0354   -9.6246 H         1 <0>         0.1194
     61 H21        -0.9504   -0.7326   -9.8277 H         1 <0>         0.1067
     62 H22        -2.5478    1.2259  -11.5421 H         1 <0>         0.1164
     63 H23        -3.1533   -0.7634  -12.8627 H         1 <0>         0.1230
     64 H24        -2.2243   -1.8033  -11.7553 H         1 <0>         0.0939
     65 H25        -4.6426   -1.8533  -11.2056 H         1 <0>         0.1417
     66 H26        -4.6299   -0.0870  -10.9897 H         1 <0>         0.1361
     67 H27        -1.8736    2.9540  -12.9166 H         1 <0>         0.1220
     68 H28        -0.7324    4.4575  -14.4896 H         1 <0>         0.1374
     69 H29         1.3927    3.7876  -15.5310 H         1 <0>         0.1388
     70 H30         2.3980    1.6093  -15.0129 H         1 <0>         0.1377
     71 H31        -0.2613   -2.4860  -12.1694 H         1 <0>         0.4055
     72 H32         0.4901   -0.4732   -3.8468 H         1 <0>         0.1297
     73 H33         2.0317   -0.8235   -5.7301 H         1 <0>         0.1275
     74 H34         1.7808   -2.7929   -7.1824 H         1 <0>         0.1254
     75 H35        -0.0114   -4.4245   -6.7625 H         1 <0>         0.1256
     76 H36        -1.5588   -4.1022   -4.8788 H         1 <0>         0.1223
     77 H37        -2.9970   -1.9851   -9.4607 H         1 <0>         0.4251
     78 H38        -4.7901   -2.1962   -2.3433 H         1 <0>         0.4114
@<TRIPOS>BOND
     1    1    2 1
     2    1   41 1
     3    1   42 1
     4    1   43 1
     5    2    3 1
     6    2   44 1
     7    2    4 1
     8    3   45 1
     9    3   46 1
    10    3   47 1
    11    4    5 2
    12    4   48 1
    13    5    6 1
    14    5   10 1
    15    6    7 2
    16    7    8 1
    17    7   35 1
    18    8    9 1
    19    8   12 1
    20    8   49 1
    21    9   10 1
    22    9   50 1
    23    9   78 1
    24   10   11 1
    25   10   51 1
    26   12   17 ar
    27   12   13 ar
    28   13   14 ar
    29   13   52 1
    30   14   15 ar
    31   14   53 1
    32   15   16 ar
    33   15   18 1
    34   16   17 ar
    35   16   54 1
    36   17   55 1
    37   18   19 1
    38   18   56 1
    39   18   57 1
    40   19   24 1
    41   19   20 1
    42   19   77 1
    43   20   21 1
    44   20   58 1
    45   20   59 1
    46   21   22 1
    47   21   60 1
    48   21   61 1
    49   22   23 1
    50   22   25 1
    51   22   62 1
    52   23   24 1
    53   23   63 1
    54   23   64 1
    55   24   65 1
    56   24   66 1
    57   25   33 1
    58   25   26 1
    59   26   31 ar
    60   26   27 ar
    61   27   28 ar
    62   27   67 1
    63   28   29 ar
    64   28   68 1
    65   29   30 ar
    66   29   69 1
    67   30   31 ar
    68   30   70 1
    69   31   32 1
    70   32   33 2
    71   33   34 1
    72   34   71 1
    73   35   40 ar
    74   35   36 ar
    75   36   37 ar
    76   36   72 1
    77   37   38 ar
    78   37   73 1
    79   38   39 ar
    80   38   74 1
    81   39   40 ar
    82   39   75 1
    83   40   76 1
@<TRIPOS>MOLECULE
CHEMBL258844
   72    79     0     0     0
SMALL
USER_CHARGES

@<TRIPOS>ATOM
      1 C1         -0.3283    0.5400   -0.9224 C.ar      1 <0>        -0.1010
      2 C2          0.7317    1.4280   -0.8815 C.ar      1 <0>        -0.1174
      3 C3          2.0149    0.9658   -0.6721 C.ar      1 <0>        -0.0749
      4 C4          2.2420   -0.3996   -0.5014 C.ar      1 <0>        -0.0496
      5 C5          1.1693   -1.2899   -0.5436 C.ar      1 <0>        -0.0903
      6 C6         -0.1093   -0.8156   -0.7538 C.ar      1 <0>        -0.1261
      7 C7          3.6171   -0.9023   -0.2767 C.ar      1 <0>         0.1698
      8 C8          3.8656   -1.8955    0.7646 C.ar      1 <0>         0.1362
      9 N1          5.0860   -2.3512    0.9752 N.ar      1 <0>        -0.3960
     10 C9          6.1023   -1.9002    0.2291 C.ar      1 <0>         0.0612
     11 C10         7.4056   -2.3681    0.4325 C.ar      1 <0>        -0.0170
     12 C11         8.4404   -1.8845   -0.3549 C.ar      1 <0>         0.0746
     13 C12         8.1934   -0.9229   -1.3621 C.ar      1 <0>         0.0861
     14 C13         6.9246   -0.4399   -1.5912 C.ar      1 <0>        -0.0760
     15 C14         5.8525   -0.9040   -0.8159 C.ar      1 <0>         0.0929
     16 N2          4.6096   -0.4538   -1.0225 N.ar      1 <0>        -0.4108
     17 N3          9.4225   -0.6645   -1.9466 N.pl3     1 <0>        -0.6146
     18 H1          9.5945   -0.0462   -2.6740 H         1 <0>         0.4330
     19 C15        10.3442   -1.4384   -1.3113 C.2       1 <0>         0.3107
     20 N4          9.7751   -2.1498   -0.3840 N.2       1 <0>        -0.4999
     21 C16         2.7409   -2.3942    1.5898 C.ar      1 <0>         0.0018
     22 C17         1.8051   -1.5010    2.1109 C.ar      1 <0>        -0.0796
     23 C18         0.7594   -1.9715    2.8785 C.ar      1 <0>        -0.0959
     24 C19         0.6382   -3.3262    3.1313 C.ar      1 <0>        -0.1530
     25 C20         1.5633   -4.2171    2.6171 C.ar      1 <0>        -0.0911
     26 C21         2.6103   -3.7592    1.8438 C.ar      1 <0>        -0.0791
     27 C22        -0.5059   -3.8335    3.9708 C.3       1 <0>         0.0439
     28 N5         -1.6506   -4.1420    3.1033 N.4       1 <0>        -0.3853
     29 C23        -2.1353   -2.9060    2.4773 C.3       1 <0>        -0.0074
     30 C24        -3.2755   -3.2327    1.5105 C.3       1 <0>        -0.1649
     31 C25        -4.4183   -3.8975    2.2834 C.3       1 <0>         0.1608
     32 C26        -3.8837   -5.1449    2.9929 C.3       1 <0>        -0.1669
     33 C27        -2.7209   -4.7474    3.9048 C.3       1 <0>         0.0012
     34 N6         -5.4815   -4.2817    1.3517 N.am      1 <0>        -0.5372
     35 C28        -6.7974   -3.8260    1.3837 C.ar      1 <0>         0.0798
     36 C29        -7.4812   -2.9504    2.2134 C.ar      1 <0>        -0.1043
     37 C30        -8.8186   -2.6912    1.9864 C.ar      1 <0>        -0.1029
     38 C31        -9.4793   -3.3022    0.9344 C.ar      1 <0>        -0.0991
     39 C32        -8.8067   -4.1761    0.1030 C.ar      1 <0>        -0.1002
     40 C33        -7.4636   -4.4419    0.3224 C.ar      1 <0>         0.0916
     41 N7         -6.5320   -5.2527   -0.3216 N.am      1 <0>        -0.6396
     42 H2         -6.7032   -5.8073   -1.0987 H         1 <0>         0.4396
     43 C34        -5.3518   -5.1309    0.3150 C.2       1 <0>         0.6857
     44 O1         -4.3248   -5.7041    0.0029 O.2       1 <0>        -0.5575
     45 H3         -1.3314    0.9069   -1.0821 H         1 <0>         0.1266
     46 H4          0.5546    2.4851   -1.0142 H         1 <0>         0.1310
     47 H5          2.8417    1.6600   -0.6408 H         1 <0>         0.1300
     48 H6          1.3390   -2.3484   -0.4124 H         1 <0>         0.1216
     49 H7         -0.9409   -1.5040   -0.7867 H         1 <0>         0.1228
     50 H8          7.6048   -3.1021    1.1993 H         1 <0>         0.1532
     51 H9          6.7559    0.2945   -2.3650 H         1 <0>         0.1464
     52 H10        11.3985   -1.4589   -1.5445 H         1 <0>         0.2289
     53 H11         1.8989   -0.4432    1.9145 H         1 <0>         0.1383
     54 H12         0.0343   -1.2808    3.2829 H         1 <0>         0.1361
     55 H13         1.4634   -5.2736    2.8180 H         1 <0>         0.1366
     56 H14         3.3294   -4.4561    1.4392 H         1 <0>         0.1403
     57 H15        -0.1970   -4.7354    4.4991 H         1 <0>         0.1398
     58 H16        -0.7931   -3.0695    4.6933 H         1 <0>         0.1380
     59 H17        -2.4972   -2.2263    3.2487 H         1 <0>         0.1328
     60 H18        -1.3202   -2.4324    1.9303 H         1 <0>         0.1400
     61 H19        -3.6353   -2.3135    1.0481 H         1 <0>         0.1171
     62 H20        -2.9147   -3.9122    0.7384 H         1 <0>         0.1072
     63 H21        -4.8135   -3.1995    3.0216 H         1 <0>         0.1149
     64 H22        -4.6780   -5.5925    3.5902 H         1 <0>         0.1177
     65 H23        -3.5354   -5.8641    2.2516 H         1 <0>         0.1075
     66 H24        -2.3380   -5.6332    4.4116 H         1 <0>         0.1385
     67 H25        -3.0703   -4.0284    4.6458 H         1 <0>         0.1334
     68 H26        -6.9692   -2.4725    3.0355 H         1 <0>         0.1289
     69 H27        -9.3513   -2.0092    2.6325 H         1 <0>         0.1385
     70 H28       -10.5253   -3.0948    0.7634 H         1 <0>         0.1398
     71 H29        -9.3257   -4.6514   -0.7163 H         1 <0>         0.1365
     72 H30        -1.3622   -4.7896    2.3852 H         1 <0>         0.4263
@<TRIPOS>BOND
     1    1    6 ar
     2    1    2 ar
     3    1   45 1
     4    2    3 ar
     5    2   46 1
     6    3    4 ar
     7    3   47 1
     8    4    5 ar
     9    4    7 1
    10    5    6 ar
    11    5   48 1
    12    6   49 1
    13    7   16 ar
    14    7    8 ar
    15    8    9 ar
    16    8   21 1
    17    9   10 ar
    18   10   15 ar
    19   10   11 ar
    20   11   12 ar
    21   11   50 1
    22   12   20 1
    23   12   13 ar
    24   13   14 ar
    25   13   17 1
    26   14   15 ar
    27   14   51 1
    28   15   16 ar
    29   17   18 1
    30   17   19 1
    31   19   20 2
    32   19   52 1
    33   21   26 ar
    34   21   22 ar
    35   22   23 ar
    36   22   53 1
    37   23   24 ar
    38   23   54 1
    39   24   25 ar
    40   24   27 1
    41   25   26 ar
    42   25   55 1
    43   26   56 1
    44   27   28 1
    45   27   57 1
    46   27   58 1
    47   28   33 1
    48   28   29 1
    49   28   72 1
    50   29   30 1
    51   29   59 1
    52   29   60 1
    53   30   31 1
    54   30   61 1
    55   30   62 1
    56   31   32 1
    57   31   34 1
    58   31   63 1
    59   32   33 1
    60   32   64 1
    61   32   65 1
    62   33   66 1
    63   33   67 1
    64   34   43 am
    65   34   35 1
    66   35   40 ar
    67   35   36 ar
    68   36   37 ar
    69   36   68 1
    70   37   38 ar
    71   37   69 1
    72   38   39 ar
    73   38   70 1
    74   39   40 ar
    75   39   71 1
    76   40   41 1
    77   41   42 1
    78   41   43 am
    79   43   44 2
@<TRIPOS>MOLECULE
CHEMBL593490
   61    66     0     0     0
SMALL
USER_CHARGES

@<TRIPOS>ATOM
      1 C1         -0.0184    1.5028    0.0103 C.3       1 <0>        -0.0779
      2 C2          0.0021   -0.0041    0.0020 C.2       1 <0>         0.1042
      3 C3          0.0084   -0.8581   -1.1821 C.ar      1 <0>        -0.1798
      4 C4         -0.0022   -0.6080   -2.5573 C.ar      1 <0>        -0.0151
      5 C5          0.0081   -1.6742   -3.4435 C.ar      1 <0>        -0.1083
      6 C6          0.0290   -2.9899   -2.9630 C.ar      1 <0>        -0.0417
      7 C7          0.0390   -3.2413   -1.6233 C.ar      1 <0>        -0.1371
      8 C8          0.0294   -2.1860   -0.7124 C.ar      1 <0>         0.1452
      9 N1          0.0351   -2.1193    0.6567 N.pl3     1 <0>        -0.5035
     10 H1          0.0487   -2.8812    1.2569 H         1 <0>         0.4446
     11 N2          0.0230   -0.7772    1.0497 N.2       1 <0>        -0.2433
     12 C9         -0.0035   -1.4210   -4.9043 C.ar      1 <0>        -0.0322
     13 C10        -0.9355   -0.5478   -5.4653 C.ar      1 <0>        -0.0853
     14 C11        -0.9051   -0.3436   -6.8395 C.ar      1 <0>         0.0593
     15 C12         0.0427   -1.0081   -7.6063 C.ar      1 <0>         0.0318
     16 N3          0.9125   -1.8281   -7.0523 N.ar      1 <0>        -0.4335
     17 C13         0.9273   -2.0517   -5.7455 C.ar      1 <0>         0.1998
     18 C14         1.9297   -2.9782   -5.1692 C.2       1 <0>        -0.1593
     19 C15         2.4700   -4.1950   -5.7872 C.2       1 <0>        -0.1833
     20 C16         3.3423   -4.7046   -4.9018 C.2       1 <0>        -0.0338
     21 O1          3.3771   -3.9146   -3.8179 O.3       1 <0>        -0.1727
     22 C17         2.5441   -2.8742   -3.9610 C.2       1 <0>         0.0146
     23 O2         -1.7953    0.4986   -7.4278 O.3       1 <0>        -0.3219
     24 C18        -1.7005    0.6562   -8.8449 C.3       1 <0>         0.0262
     25 C19        -2.7757    1.6345   -9.3223 C.3       1 <0>         0.0434
     26 H2         -3.7544    1.2903   -8.9878 H         1 <0>         0.1529
     27 C20        -2.7559    1.7081  -10.8504 C.3       1 <0>        -0.0556
     28 C21        -3.8928    2.5754  -11.3263 C.2       1 <0>        -0.2373
     29 C22        -5.1087    2.1573  -11.7119 C.2       1 <0>         0.1038
     30 N4         -5.8763    3.2293  -12.0778 N.pl3     1 <0>        -0.5846
     31 H3         -6.7924    3.1772  -12.3925 H         1 <0>         0.4265
     32 C23        -5.1548    4.3930  -11.9329 C.ar      1 <0>         0.0988
     33 C24        -3.8827    4.0350  -11.4497 C.ar      1 <0>        -0.1171
     34 C25        -2.9289    5.0233  -11.2002 C.ar      1 <0>        -0.1139
     35 C26        -3.2375    6.3357  -11.4234 C.ar      1 <0>        -0.1191
     36 C27        -4.4922    6.6944  -11.8961 C.ar      1 <0>        -0.0932
     37 C28        -5.4454    5.7344  -12.1579 C.ar      1 <0>        -0.1111
     38 N5         -2.5081    2.9668   -8.7643 N.4       1 <0>        -0.6362
     39 H4          1.0042    1.8801    0.0026 H         1 <0>         0.0860
     40 H5         -0.5455    1.8639   -0.8728 H         1 <0>         0.0806
     41 H6         -0.5286    1.8543    0.9071 H         1 <0>         0.0829
     42 H7         -0.0187    0.4068   -2.9262 H         1 <0>         0.1312
     43 H8          0.0369   -3.8138   -3.6613 H         1 <0>         0.1335
     44 H9          0.0543   -4.2606   -1.2666 H         1 <0>         0.1337
     45 H10        -1.6631   -0.0432   -4.8469 H         1 <0>         0.1492
     46 H11         0.0672   -0.8505   -8.6745 H         1 <0>         0.1591
     47 H12         2.2173   -4.5988   -6.7565 H         1 <0>         0.1550
     48 H13         3.9220   -5.6053   -5.0401 H         1 <0>         0.2077
     49 H14         2.3861   -2.0877   -3.2379 H         1 <0>         0.2036
     50 H15        -0.7153    1.0452   -9.1021 H         1 <0>         0.0917
     51 H16        -1.8474   -0.3095   -9.3285 H         1 <0>         0.1134
     52 H17        -1.8095    2.1358  -11.1813 H         1 <0>         0.0998
     53 H18        -2.8659    0.7056  -11.2639 H         1 <0>         0.1216
     54 H19        -5.4329    1.1273  -11.7309 H         1 <0>         0.1790
     55 H20        -1.9508    4.7517  -10.8316 H         1 <0>         0.1149
     56 H21        -2.4993    7.1000  -11.2302 H         1 <0>         0.1312
     57 H22        -4.7214    7.7359  -12.0670 H         1 <0>         0.1352
     58 H23        -6.4193    6.0237  -12.5244 H         1 <0>         0.1293
     59 H24        -1.6021    3.2853   -9.0740 H         1 <0>         0.4298
     60 H25        -3.2171    3.6119   -9.0792 H         1 <0>         0.4379
     61 H26        -2.5211    2.9182   -7.7566 H         1 <0>         0.4394
@<TRIPOS>BOND
     1    1    2 1
     2    1   39 1
     3    1   40 1
     4    1   41 1
     5    2   11 2
     6    2    3 1
     7    3    8 ar
     8    3    4 ar
     9    4    5 ar
    10    4   42 1
    11    5    6 ar
    12    5   12 1
    13    6    7 ar
    14    6   43 1
    15    7    8 ar
    16    7   44 1
    17    8    9 1
    18    9   10 1
    19    9   11 1
    20   12   17 ar
    21   12   13 ar
    22   13   14 ar
    23   13   45 1
    24   14   15 ar
    25   14   23 1
    26   15   16 ar
    27   15   46 1
    28   16   17 ar
    29   17   18 1
    30   18   22 2
    31   18   19 1
    32   19   20 2
    33   19   47 1
    34   20   21 1
    35   20   48 1
    36   21   22 1
    37   22   49 1
    38   23   24 1
    39   24   25 1
    40   24   50 1
    41   24   51 1
    42   25   26 1
    43   25   27 1
    44   25   38 1
    45   27   28 1
    46   27   52 1
    47   27   53 1
    48   28   33 1
    49   28   29 2
    50   29   30 1
    51   29   54 1
    52   30   31 1
    53   30   32 1
    54   32   37 ar
    55   32   33 ar
    56   33   34 ar
    57   34   35 ar
    58   34   55 1
    59   35   36 ar
    60   35   56 1
    61   36   37 ar
    62   36   57 1
    63   37   58 1
    64   38   59 1
    65   38   60 1
    66   38   61 1
@<TRIPOS>MOLECULE
CHEMBL522351
   63    65     0     0     0
SMALL
USER_CHARGES

@<TRIPOS>ATOM
      1 C1         -0.0187    1.5258    0.0104 C.3       1 <0>        -0.1653
      2 C2          0.0021   -0.0041    0.0020 C.3       1 <0>         0.0985
      3 N1          0.6878   -0.4765   -1.2033 N.pl3     1 <0>        -0.4449
      4 C3          0.1084   -0.7452   -2.4220 C.ar      1 <0>         0.0730
      5 C4         -1.1885   -0.6848   -2.9333 C.ar      1 <0>         0.0982
      6 C5         -1.4068   -1.0423   -4.2530 C.ar      1 <0>         0.0253
      7 N2         -0.4156   -1.4373   -5.0310 N.ar      1 <0>        -0.4282
      8 C6          0.8360   -1.5144   -4.6003 C.ar      1 <0>         0.2936
      9 C7          1.1491   -1.1685   -3.2692 C.ar      1 <0>         0.0634
     10 N3          2.2847   -1.1401   -2.5504 N.2       1 <0>        -0.4382
     11 C8          2.0279   -0.7287   -1.3319 C.2       1 <0>         0.3435
     12 C9          3.0324   -0.5655   -0.2583 C.2       1 <0>         0.1302
     13 C10         4.4724   -0.8253   -0.3802 C.2       1 <0>         0.3642
     14 N4          5.0335   -0.5707    0.7697 N.2       1 <0>        -0.3422
     15 O1          4.0212   -0.1472    1.6654 O.3       1 <0>         0.0505
     16 N5          2.7917   -0.1594    0.9619 N.2       1 <0>        -0.2472
     17 N6          5.1251   -1.2670   -1.5235 N.pl3     1 <0>        -0.8008
     18 C11         1.8718   -1.9500   -5.4881 C.1       1 <0>        -0.1224
     19 C12         2.7209   -2.3071   -6.2159 C.1       1 <0>        -0.1230
     20 C13         3.7856   -2.7549   -7.1284 C.3       1 <0>         0.2402
     21 C14         5.1250   -2.7540   -6.3888 C.3       1 <0>        -0.1760
     22 C15         3.4749   -4.1704   -7.6190 C.3       1 <0>        -0.1391
     23 O2          3.8585   -1.8683   -8.2468 O.3       1 <0>        -0.5437
     24 O3         -2.2219   -0.2814   -2.1476 O.3       1 <0>        -0.3071
     25 C16        -3.5183   -0.2475   -2.7478 C.3       1 <0>         0.0580
     26 C17        -4.5450    0.2275   -1.7176 C.3       1 <0>        -0.1524
     27 C18        -5.9330    0.2637   -2.3602 C.3       1 <0>        -0.0055
     28 N7         -6.9188    0.7198   -1.3711 N.4       1 <0>        -0.5026
     29 C19        -8.2515    0.7546   -1.9881 C.3       1 <0>        -0.0422
     30 C20        -9.2781    1.2296   -0.9579 C.3       1 <0>         0.0814
     31 H1         -9.0112    2.2286   -0.6129 H         1 <0>         0.1318
     32 C21       -10.6662    1.2659   -1.6005 C.3       1 <0>         0.0478
     33 O4        -11.6048    1.8191   -0.6758 O.3       1 <0>        -0.5591
     34 O5         -9.2905    0.3298    0.1521 O.3       1 <0>        -0.5456
     35 H2          1.0039    1.9031    0.0027 H         1 <0>         0.0655
     36 H3         -0.5459    1.8868   -0.8726 H         1 <0>         0.0627
     37 H4         -0.5289    1.8773    0.9072 H         1 <0>         0.0863
     38 H5          0.5293   -0.3651    0.8851 H         1 <0>         0.1100
     39 H6         -1.0205   -0.3814    0.0098 H         1 <0>         0.1030
     40 H7         -2.4085   -0.9976   -4.6543 H         1 <0>         0.1721
     41 H8          4.6220   -1.4309   -2.3365 H         1 <0>         0.4300
     42 H9          6.0842   -1.4116   -1.5092 H         1 <0>         0.4213
     43 H10         5.0694   -3.4303   -5.5357 H         1 <0>         0.0726
     44 H11         5.9134   -3.0856   -7.0645 H         1 <0>         0.0804
     45 H12         5.3464   -1.7456   -6.0392 H         1 <0>         0.0650
     46 H13         2.5207   -4.1710   -8.1459 H         1 <0>         0.0690
     47 H14         4.2633   -4.5020   -8.2948 H         1 <0>         0.0784
     48 H15         3.4193   -4.8466   -6.7660 H         1 <0>         0.0766
     49 H16         4.0529   -0.9513   -8.0097 H         1 <0>         0.3824
     50 H17        -3.5089    0.4388   -3.5945 H         1 <0>         0.0804
     51 H18        -3.7852   -1.2465   -3.0928 H         1 <0>         0.0803
     52 H19        -4.5544   -0.4589   -0.8709 H         1 <0>         0.1018
     53 H20        -4.2781    1.2264   -1.3726 H         1 <0>         0.1021
     54 H21        -5.9236    0.9501   -3.2069 H         1 <0>         0.1389
     55 H22        -6.1999   -0.7352   -2.7052 H         1 <0>         0.1382
     56 H23        -6.9275    0.0844   -0.5873 H         1 <0>         0.4348
     57 H24        -8.2421    1.4410   -2.8348 H         1 <0>         0.1471
     58 H25        -8.5184   -0.2443   -2.3331 H         1 <0>         0.1398
     59 H26       -10.6347    1.8824   -2.4988 H         1 <0>         0.0665
     60 H27       -10.9706    0.2533   -1.8652 H         1 <0>         0.0613
     61 H28       -12.5081    1.8727   -1.0170 H         1 <0>         0.3980
     62 H29        -9.5206   -0.5799   -0.0815 H         1 <0>         0.3888
     63 H30        -6.6717    1.6445   -1.0517 H         1 <0>         0.4324
@<TRIPOS>BOND
     1    1    2 1
     2    1   35 1
     3    1   36 1
     4    1   37 1
     5    2    3 1
     6    2   38 1
     7    2   39 1
     8    3   11 1
     9    3    4 1
    10    4    9 ar
    11    4    5 ar
    12    5    6 ar
    13    5   24 1
    14    6    7 ar
    15    6   40 1
    16    7    8 ar
    17    8    9 ar
    18    8   18 1
    19    9   10 1
    20   10   11 2
    21   11   12 1
    22   12   16 2
    23   12   13 1
    24   13   14 2
    25   13   17 1
    26   14   15 1
    27   15   16 1
    28   17   41 1
    29   17   42 1
    30   18   19 3
    31   19   20 1
    32   20   21 1
    33   20   22 1
    34   20   23 1
    35   21   43 1
    36   21   44 1
    37   21   45 1
    38   22   46 1
    39   22   47 1
    40   22   48 1
    41   23   49 1
    42   24   25 1
    43   25   26 1
    44   25   50 1
    45   25   51 1
    46   26   27 1
    47   26   52 1
    48   26   53 1
    49   27   28 1
    50   27   54 1
    51   27   55 1
    52   28   29 1
    53   28   56 1
    54   28   63 1
    55   29   30 1
    56   29   57 1
    57   29   58 1
    58   30   31 1
    59   30   32 1
    60   30   34 1
    61   32   33 1
    62   32   59 1
    63   32   60 1
    64   33   61 1
    65   34   62 1
@<TRIPOS>MOLECULE
CHEMBL1171647
   52    55     0     0     0
SMALL
USER_CHARGES

@<TRIPOS>ATOM
      1 C1          0.7202   -3.1310   -2.6806 C.3       1 <0>        -0.1540
      2 C2         -0.3986   -3.1799   -3.7231 C.3       1 <0>        -0.0409
      3 C3         -1.7325   -3.2513   -3.0254 C.2       1 <0>        -0.1517
      4 C4         -2.4141   -4.3656   -2.7132 C.2       1 <0>         0.0741
      5 N1         -3.5858   -4.0326   -2.0841 N.pl3     1 <0>        -0.5679
      6 H1         -4.2451   -4.6679   -1.7636 H         1 <0>         0.4298
      7 C5         -3.6885   -2.6731   -1.9744 C.ar      1 <0>         0.3263
      8 C6         -2.5303   -2.1214   -2.5528 C.ar      1 <0>        -0.1938
      9 C7         -2.3831   -0.7262   -2.5647 C.ar      1 <0>         0.4782
     10 N2         -3.3461    0.0146   -2.0240 N.ar      1 <0>        -0.5412
     11 C8         -4.4159   -0.5449   -1.4882 C.ar      1 <0>         0.3335
     12 N3         -4.5996   -1.8473   -1.4623 N.ar      1 <0>        -0.5214
     13 N4         -1.2642   -0.1360   -3.1244 N.pl3     1 <0>        -0.6552
     14 C9         -0.0473    0.2632   -2.3942 C.3       1 <0>         0.1354
     15 C10         1.0732    0.2684   -3.4639 C.3       1 <0>        -0.1473
     16 C11         0.3160    0.8091   -4.7055 C.3       1 <0>         0.0299
     17 C12        -1.0891    0.1912   -4.5470 C.3       1 <0>         0.1338
     18 C13         0.2477    2.3372   -4.6748 C.3       1 <0>         0.1157
     19 N5          1.5959    2.8895   -4.8274 N.am      1 <0>        -0.7500
     20 C14         1.7810    4.2245   -4.8298 C.2       1 <0>         0.5718
     21 O1          0.8290    4.9705   -4.7052 O.2       1 <0>        -0.4908
     22 C15         3.1391    4.7809   -4.9836 C.ar      1 <0>        -0.2021
     23 C16         4.2347    3.9264   -5.1327 C.ar      1 <0>        -0.0306
     24 C17         5.5002    4.4509   -5.2758 C.ar      1 <0>        -0.1714
     25 C18         5.6904    5.8254   -5.2723 C.ar      1 <0>         0.1752
     26 C19         4.6102    6.6796   -5.1251 C.ar      1 <0>        -0.1995
     27 C20         3.3346    6.1662   -4.9864 C.ar      1 <0>         0.2025
     28 F1          2.2802    6.9995   -4.8484 F         1 <0>        -0.0998
     29 F2          6.9346    6.3326   -5.4128 F         1 <0>        -0.1149
     30 N6          0.9496    0.3405   -5.9453 N.4       1 <0>        -0.6284
     31 H2          1.6763   -2.9762   -3.1807 H         1 <0>         0.0545
     32 H3          0.5355   -2.3101   -1.9877 H         1 <0>         0.0567
     33 H4          0.7459   -4.0718   -2.1308 H         1 <0>         0.0621
     34 H5         -0.3592   -2.2826   -4.3407 H         1 <0>         0.0562
     35 H6         -0.2703   -4.0603   -4.3528 H         1 <0>         0.0744
     36 H7         -2.0880   -5.3730   -2.9258 H         1 <0>         0.1855
     37 H8         -5.1744    0.0935   -1.0598 H         1 <0>         0.2071
     38 H9         -0.1699    1.2590   -1.9684 H         1 <0>         0.0754
     39 H10         0.1794   -0.4600   -1.6108 H         1 <0>         0.0899
     40 H11         1.8834    0.9390   -3.1777 H         1 <0>         0.1146
     41 H12         1.4473   -0.7397   -3.6427 H         1 <0>         0.1082
     42 H13        -1.1678   -0.7146   -5.1482 H         1 <0>         0.0814
     43 H14        -1.8459    0.9116   -4.8575 H         1 <0>         0.0933
     44 H15        -0.3837    2.6892   -5.4907 H         1 <0>         0.1049
     45 H16        -0.1729    2.6630   -3.7234 H         1 <0>         0.1238
     46 H17         2.3555    2.2944   -4.9268 H         1 <0>         0.3926
     47 H18         4.0894    2.8562   -5.1353 H         1 <0>         0.1393
     48 H19         6.3470    3.7905   -5.3907 H         1 <0>         0.1551
     49 H20         4.7644    7.7486   -5.1228 H         1 <0>         0.1637
     50 H21         0.9579   -0.6683   -5.9583 H         1 <0>         0.4405
     51 H22         0.4291    0.6828   -6.7391 H         1 <0>         0.4422
     52 H23         1.8968    0.6854   -5.9901 H         1 <0>         0.4335
@<TRIPOS>BOND
     1    1    2 1
     2    1   31 1
     3    1   32 1
     4    1   33 1
     5    2    3 1
     6    2   34 1
     7    2   35 1
     8    3    8 1
     9    3    4 2
    10    4    5 1
    11    4   36 1
    12    5    6 1
    13    5    7 1
    14    7   12 ar
    15    7    8 ar
    16    8    9 ar
    17    9   10 ar
    18    9   13 1
    19   10   11 ar
    20   11   12 ar
    21   11   37 1
    22   13   17 1
    23   13   14 1
    24   14   15 1
    25   14   38 1
    26   14   39 1
    27   15   16 1
    28   15   40 1
    29   15   41 1
    30   16   17 1
    31   16   18 1
    32   16   30 1
    33   17   42 1
    34   17   43 1
    35   18   19 1
    36   18   44 1
    37   18   45 1
    38   19   20 am
    39   19   46 1
    40   20   21 2
    41   20   22 1
    42   22   27 ar
    43   22   23 ar
    44   23   24 ar
    45   23   47 1
    46   24   25 ar
    47   24   48 1
    48   25   26 ar
    49   25   29 1
    50   26   27 ar
    51   26   49 1
    52   27   28 1
    53   30   50 1
    54   30   51 1
    55   30   52 1
@<TRIPOS>MOLECULE
CHEMBL259141
   32    34     0     0     0
SMALL
USER_CHARGES

@<TRIPOS>ATOM
      1 C1         -0.6445   -1.3263    2.6144 C.2       1 <0>        -0.1755
      2 C2          0.4711   -1.6516    3.2877 C.2       1 <0>         0.0691
      3 N1          1.5113   -1.8186    2.4104 N.pl3     1 <0>        -0.5703
      4 H1          2.4177   -2.0563    2.6611 H         1 <0>         0.4281
      5 C3          1.0832   -1.6011    1.1296 C.ar      1 <0>         0.3225
      6 C4         -0.2858   -1.2829    1.1981 C.ar      1 <0>        -0.2038
      7 C5         -0.9742   -1.0117    0.0059 C.ar      1 <0>         0.4610
      8 N2         -0.2997   -1.0678   -1.1389 N.ar      1 <0>        -0.5510
      9 C6          0.9857   -1.3706   -1.1577 C.ar      1 <0>         0.3274
     10 N3          1.6708   -1.6316   -0.0654 N.ar      1 <0>        -0.5249
     11 N4         -2.3205   -0.6946    0.0209 N.pl3     1 <0>        -0.6578
     12 C7         -2.7591    0.7028    0.1372 C.3       1 <0>         0.1530
     13 C8         -3.7170    1.0166   -1.0164 C.3       1 <0>        -0.1613
     14 C9         -4.8587   -0.0025   -1.0177 C.3       1 <0>         0.0307
     15 C10        -4.2904   -1.4075   -1.2303 C.3       1 <0>        -0.1612
     16 C11        -3.3390   -1.7482   -0.0852 C.3       1 <0>         0.1527
     17 N5         -5.7970    0.3152   -2.1024 N.4       1 <0>        -0.6370
     18 H2         -1.6200   -1.1376    3.0376 H         1 <0>         0.1544
     19 H3          0.5386   -1.7648    4.3597 H         1 <0>         0.1875
     20 H4          1.4956   -1.4052   -2.1092 H         1 <0>         0.2033
     21 H5         -3.2725    0.8467    1.0879 H         1 <0>         0.0732
     22 H6         -1.8936    1.3632    0.0834 H         1 <0>         0.0893
     23 H7         -4.1246    2.0194   -0.8883 H         1 <0>         0.0962
     24 H8         -3.1781    0.9604   -1.9622 H         1 <0>         0.0942
     25 H9         -5.3818    0.0369   -0.0622 H         1 <0>         0.1425
     26 H10        -5.1062   -2.1301   -1.2544 H         1 <0>         0.0966
     27 H11        -3.7462   -1.4409   -2.1741 H         1 <0>         0.0941
     28 H12        -2.8560   -2.7045   -0.2857 H         1 <0>         0.0892
     29 H13        -3.9008   -1.8086    0.8469 H         1 <0>         0.0726
     30 H14        -5.3131    0.2793   -2.9870 H         1 <0>         0.4338
     31 H15        -6.5499   -0.3567   -2.1034 H         1 <0>         0.4357
     32 H16        -6.1727    1.2410   -1.9618 H         1 <0>         0.4356
@<TRIPOS>BOND
     1    1    6 1
     2    1    2 2
     3    1   18 1
     4    2    3 1
     5    2   19 1
     6    3    4 1
     7    3    5 1
     8    5   10 ar
     9    5    6 ar
    10    6    7 ar
    11    7    8 ar
    12    7   11 1
    13    8    9 ar
    14    9   10 ar
    15    9   20 1
    16   11   16 1
    17   11   12 1
    18   12   13 1
    19   12   21 1
    20   12   22 1
    21   13   14 1
    22   13   23 1
    23   13   24 1
    24   14   15 1
    25   14   17 1
    26   14   25 1
    27   15   16 1
    28   15   26 1
    29   15   27 1
    30   16   28 1
    31   16   29 1
    32   17   30 1
    33   17   31 1
    34   17   32 1
@<TRIPOS>MOLECULE
CHEMBL270847
   68    74     0     0     0
SMALL
USER_CHARGES

@<TRIPOS>ATOM
      1 C1         -0.0167    1.3791    0.0096 C.ar      1 <0>        -0.1191
      2 C2          1.1686    2.0923    0.0021 C.ar      1 <0>        -0.1133
      3 C3          2.3774    1.4267   -0.0135 C.ar      1 <0>        -0.1028
      4 C4          2.4025    0.0330   -0.0212 C.ar      1 <0>        -0.0340
      5 C5          1.2049   -0.6804   -0.0131 C.ar      1 <0>        -0.1020
      6 C6          0.0021   -0.0041    0.0020 C.ar      1 <0>        -0.1255
      7 C7          3.6980   -0.6879   -0.0385 C.ar      1 <0>        -0.0825
      8 C8          4.6841   -0.3489   -0.9627 C.ar      1 <0>        -0.0528
      9 C9          5.8876   -1.0590   -0.9374 C.ar      1 <0>         0.0299
     10 C10         6.0599   -2.0752    0.0049 C.ar      1 <0>         0.1186
     11 N1          5.1084   -2.3706    0.8635 N.ar      1 <0>        -0.4617
     12 C11         3.9526   -1.7194    0.8804 C.ar      1 <0>         0.1179
     13 C12         2.9179   -2.0881    1.8739 C.ar      1 <0>         0.0213
     14 C13         2.0882   -1.1075    2.4175 C.ar      1 <0>        -0.0919
     15 C14         1.1261   -1.4572    3.3427 C.ar      1 <0>        -0.0993
     16 C15         0.9836   -2.7773    3.7314 C.ar      1 <0>        -0.1695
     17 C16         1.8039   -3.7543    3.1962 C.ar      1 <0>        -0.0943
     18 C17         2.7655   -3.4181    2.2655 C.ar      1 <0>        -0.0858
     19 C18        -0.0692   -3.1524    4.7423 C.3       1 <0>         0.0480
     20 N2         -1.3218   -3.4774    4.0472 N.4       1 <0>        -0.3850
     21 C19        -1.8302   -2.2776    3.3716 C.3       1 <0>        -0.0066
     22 C20        -3.0912   -2.6295    2.5794 C.3       1 <0>        -0.1647
     23 C21        -4.1568   -3.1671    3.5389 C.3       1 <0>         0.1608
     24 C22        -3.5893   -4.3736    4.2922 C.3       1 <0>        -0.1662
     25 C23        -2.3098   -3.9571    5.0210 C.3       1 <0>         0.0013
     26 N3         -5.3395   -3.5771    2.7776 N.am      1 <0>        -0.5370
     27 C24        -6.6229   -3.0554    2.9218 C.ar      1 <0>         0.0816
     28 C25        -7.1662   -2.0783    3.7421 C.ar      1 <0>        -0.1043
     29 C26        -8.5101   -1.7734    3.6508 C.ar      1 <0>        -0.1039
     30 C27        -9.3170   -2.4395    2.7442 C.ar      1 <0>        -0.1008
     31 C28        -8.7850   -3.4144    1.9234 C.ar      1 <0>        -0.1009
     32 C29        -7.4366   -3.7268    2.0072 C.ar      1 <0>         0.0918
     33 N4         -6.6224   -4.6357    1.3355 N.am      1 <0>        -0.6402
     34 H1         -6.9082   -5.2462    0.6380 H         1 <0>         0.4392
     35 C30        -5.3699   -4.5182    1.8153 C.2       1 <0>         0.6852
     36 O1         -4.4115   -5.1667    1.4388 O.2       1 <0>        -0.5545
     37 C31         6.9664   -0.7381   -1.8979 C.2       1 <0>         0.0622
     38 N5          6.9406    0.2045   -2.8419 N.2       1 <0>        -0.3591
     39 N6          8.0701    0.1624   -3.4621 N.2       1 <0>        -0.1793
     40 N7          8.8020   -0.7638   -2.9494 N.2       1 <0>        -0.1782
     41 N8          8.1586   -1.3306   -1.9867 N.2       1 <0>        -0.3572
     42 H2         -0.9603    1.9042    0.0260 H         1 <0>         0.1209
     43 H3          1.1479    3.1721    0.0082 H         1 <0>         0.1265
     44 H4          3.3022    1.9845   -0.0200 H         1 <0>         0.1295
     45 H5          1.2184   -1.7603   -0.0194 H         1 <0>         0.1186
     46 H6         -0.9264   -0.5557    0.0083 H         1 <0>         0.1171
     47 H7          4.5225    0.4418   -1.6803 H         1 <0>         0.1474
     48 H8          6.9880   -2.6270    0.0287 H         1 <0>         0.1719
     49 H9          2.1987   -0.0766    2.1151 H         1 <0>         0.1409
     50 H10         0.4832   -0.6988    3.7645 H         1 <0>         0.1291
     51 H11         1.6884   -4.7831    3.5041 H         1 <0>         0.1304
     52 H12         3.4019   -4.1824    1.8445 H         1 <0>         0.1412
     53 H13         0.2661   -4.0195    5.3114 H         1 <0>         0.1365
     54 H14        -0.2365   -2.3155    5.4203 H         1 <0>         0.1343
     55 H15        -2.0689   -1.5165    4.1144 H         1 <0>         0.1311
     56 H16        -1.0696   -1.8943    2.6915 H         1 <0>         0.1423
     57 H17        -3.4682   -1.7370    2.0799 H         1 <0>         0.1163
     58 H18        -2.8536   -3.3904    1.8360 H         1 <0>         0.1070
     59 H19        -4.4320   -2.3892    4.2510 H         1 <0>         0.1144
     60 H20        -4.3222   -4.7277    5.0172 H         1 <0>         0.1159
     61 H21        -3.3619   -5.1707    3.5844 H         1 <0>         0.1071
     62 H22        -1.9032   -4.8137    5.5586 H         1 <0>         0.1372
     63 H23        -2.5383   -3.1602    5.7287 H         1 <0>         0.1318
     64 H24        -6.5400   -1.5571    4.4510 H         1 <0>         0.1291
     65 H25        -8.9334   -1.0124    4.2896 H         1 <0>         0.1377
     66 H26       -10.3671   -2.1958    2.6788 H         1 <0>         0.1386
     67 H27        -9.4177   -3.9324    1.2179 H         1 <0>         0.1357
     68 H28        -1.1482   -4.1982    3.3628 H         1 <0>         0.4262
@<TRIPOS>BOND
     1    1    6 ar
     2    1    2 ar
     3    1   42 1
     4    2    3 ar
     5    2   43 1
     6    3    4 ar
     7    3   44 1
     8    4    5 ar
     9    4    7 1
    10    5    6 ar
    11    5   45 1
    12    6   46 1
    13    7   12 ar
    14    7    8 ar
    15    8    9 ar
    16    8   47 1
    17    9   10 ar
    18    9   37 1
    19   10   11 ar
    20   10   48 1
    21   11   12 ar
    22   12   13 1
    23   13   18 ar
    24   13   14 ar
    25   14   15 ar
    26   14   49 1
    27   15   16 ar
    28   15   50 1
    29   16   17 ar
    30   16   19 1
    31   17   18 ar
    32   17   51 1
    33   18   52 1
    34   19   20 1
    35   19   53 1
    36   19   54 1
    37   20   25 1
    38   20   21 1
    39   20   68 1
    40   21   22 1
    41   21   55 1
    42   21   56 1
    43   22   23 1
    44   22   57 1
    45   22   58 1
    46   23   24 1
    47   23   26 1
    48   23   59 1
    49   24   25 1
    50   24   60 1
    51   24   61 1
    52   25   62 1
    53   25   63 1
    54   26   35 am
    55   26   27 1
    56   27   32 ar
    57   27   28 ar
    58   28   29 ar
    59   28   64 1
    60   29   30 ar
    61   29   65 1
    62   30   31 ar
    63   30   66 1
    64   31   32 ar
    65   31   67 1
    66   32   33 1
    67   33   34 1
    68   33   35 am
    69   35   36 2
    70   37   41 2
    71   37   38 1
    72   38   39 1
    73   39   40 2
    74   40   41 1
@<TRIPOS>MOLECULE
CHEMBL403356
   65    70     0     0     0
SMALL
USER_CHARGES

@<TRIPOS>ATOM
      1 C1         -0.0225    1.8097    0.0120 C.3       1 <0>        -0.1490
      2 S1          0.0021   -0.0041    0.0020 S.3       1 <0>         0.0303
      3 C2          0.8484   -0.4107   -1.4889 C.ar      1 <0>         0.3271
      4 N1          1.2837    0.5796   -2.2667 N.ar      1 <0>        -0.5278
      5 C3          1.9229    0.3379   -3.3923 C.ar      1 <0>         0.2399
      6 C4          2.1419   -1.0009   -3.7658 C.ar      1 <0>        -0.2288
      7 C5          2.8151   -1.3392   -4.9495 C.ar      1 <0>         0.0087
      8 C6          2.9869   -2.6849   -5.2387 C.ar      1 <0>        -0.1091
      9 C7          2.4852   -3.6562   -4.3441 C.ar      1 <0>         0.2474
     10 N2          1.8548   -3.3109   -3.2368 N.ar      1 <0>        -0.4557
     11 C8          1.6645   -2.0319   -2.9134 C.ar      1 <0>         0.3665
     12 N3          1.0298   -1.6838   -1.7865 N.ar      1 <0>        -0.4843
     13 C9          2.6699   -5.0924   -4.6553 C.ar      1 <0>        -0.0207
     14 C10         2.6327   -5.5326   -5.9783 C.ar      1 <0>        -0.0764
     15 C11         2.8060   -6.8718   -6.2619 C.ar      1 <0>        -0.1019
     16 C12         3.0157   -7.7773   -5.2372 C.ar      1 <0>        -0.1452
     17 C13         3.0532   -7.3469   -3.9229 C.ar      1 <0>        -0.0967
     18 C14         2.8875   -6.0093   -3.6271 C.ar      1 <0>        -0.0681
     19 C15         3.2037   -9.2386   -5.5539 C.3       1 <0>         0.0427
     20 N4          4.6315   -9.5150   -5.7612 N.4       1 <0>        -0.3839
     21 C16         5.1019   -8.7885   -6.9467 C.3       1 <0>        -0.0125
     22 C17         6.6062   -9.0081   -7.1205 C.3       1 <0>        -0.1369
     23 C18         6.8814  -10.5045   -7.2944 C.3       1 <0>         0.0161
     24 C19         6.3204  -11.2604   -6.0865 C.3       1 <0>        -0.1390
     25 C20         4.8266  -10.9574   -5.9509 C.3       1 <0>        -0.0041
     26 C21         8.3676  -10.7360   -7.3879 C.2       1 <0>         0.0023
     27 N5          9.3222  -10.4691   -6.5200 N.2       1 <0>        -0.2205
     28 N6         10.5343  -10.7286   -6.7529 N.2       1 <0>        -0.3595
     29 C22        10.9233  -11.2884   -7.8908 C.2       1 <0>         0.3556
     30 S2          9.3386  -11.4595   -8.7068 S.3       1 <0>        -0.0342
     31 N7         12.1925  -11.6438   -8.3225 N.pl3     1 <0>        -0.7741
     32 C23         3.6902   -3.1001   -6.4757 C.ar      1 <0>        -0.0498
     33 C24         4.7183   -4.0397   -6.4143 C.ar      1 <0>        -0.0992
     34 C25         5.3692   -4.4227   -7.5693 C.ar      1 <0>        -0.1211
     35 C26         5.0036   -3.8759   -8.7863 C.ar      1 <0>        -0.1088
     36 C27         3.9842   -2.9431   -8.8533 C.ar      1 <0>        -0.1117
     37 C28         3.3223   -2.5567   -7.7057 C.ar      1 <0>        -0.1030
     38 H1          1.0001    2.1870    0.0043 H         1 <0>         0.0933
     39 H2         -0.5497    2.1708   -0.8711 H         1 <0>         0.0933
     40 H3         -0.5327    2.1613    0.9088 H         1 <0>         0.1177
     41 H4          2.2708    1.1489   -4.0150 H         1 <0>         0.1879
     42 H5          3.1879   -0.5750   -5.6154 H         1 <0>         0.1575
     43 H6          2.4684   -4.8268   -6.7790 H         1 <0>         0.1443
     44 H7          2.7774   -7.2139   -7.2859 H         1 <0>         0.1362
     45 H8          3.2169   -8.0585   -3.1272 H         1 <0>         0.1375
     46 H9          2.9213   -5.6738   -2.6011 H         1 <0>         0.1437
     47 H10         2.8338   -9.8407   -4.7239 H         1 <0>         0.1400
     48 H11         2.6501   -9.4884   -6.4590 H         1 <0>         0.1379
     49 H12         4.5773   -9.1553   -7.8289 H         1 <0>         0.1324
     50 H13         4.9024   -7.7241   -6.8228 H         1 <0>         0.1374
     51 H14         6.9532   -8.4693   -8.0023 H         1 <0>         0.1159
     52 H15         7.1319   -8.6413   -6.2389 H         1 <0>         0.1003
     53 H16         6.3980  -10.8607   -8.2040 H         1 <0>         0.1116
     54 H17         6.4630  -12.3316   -6.2291 H         1 <0>         0.1171
     55 H18         6.8401  -10.9404   -5.1834 H         1 <0>         0.1010
     56 H19         4.4239  -11.4942   -5.0920 H         1 <0>         0.1371
     57 H20         4.3079  -11.2780   -6.8544 H         1 <0>         0.1329
     58 H21        12.9608  -11.4862   -7.7516 H         1 <0>         0.4280
     59 H22        12.3119  -12.0500   -9.1952 H         1 <0>         0.4284
     60 H23         5.0050   -4.4667   -5.4647 H         1 <0>         0.1211
     61 H24         6.1658   -5.1505   -7.5230 H         1 <0>         0.1233
     62 H25         5.5163   -4.1781   -9.6875 H         1 <0>         0.1263
     63 H26         3.7033   -2.5193   -9.8062 H         1 <0>         0.1301
     64 H27         2.5236   -1.8318   -7.7599 H         1 <0>         0.1282
     65 H28         5.1529   -9.2096   -4.9532 H         1 <0>         0.4249
@<TRIPOS>BOND
     1    1    2 1
     2    1   38 1
     3    1   39 1
     4    1   40 1
     5    2    3 1
     6    3   12 ar
     7    3    4 ar
     8    4    5 ar
     9    5    6 ar
    10    5   41 1
    11    6   11 ar
    12    6    7 ar
    13    7    8 ar
    14    7   42 1
    15    8    9 ar
    16    8   32 1
    17    9   10 ar
    18    9   13 1
    19   10   11 ar
    20   11   12 ar
    21   13   18 ar
    22   13   14 ar
    23   14   15 ar
    24   14   43 1
    25   15   16 ar
    26   15   44 1
    27   16   17 ar
    28   16   19 1
    29   17   18 ar
    30   17   45 1
    31   18   46 1
    32   19   20 1
    33   19   47 1
    34   19   48 1
    35   20   25 1
    36   20   21 1
    37   20   65 1
    38   21   22 1
    39   21   49 1
    40   21   50 1
    41   22   23 1
    42   22   51 1
    43   22   52 1
    44   23   24 1
    45   23   26 1
    46   23   53 1
    47   24   25 1
    48   24   54 1
    49   24   55 1
    50   25   56 1
    51   25   57 1
    52   26   30 1
    53   26   27 2
    54   27   28 1
    55   28   29 2
    56   29   30 1
    57   29   31 1
    58   31   58 1
    59   31   59 1
    60   32   37 ar
    61   32   33 ar
    62   33   34 ar
    63   33   60 1
    64   34   35 ar
    65   34   61 1
    66   35   36 ar
    67   35   62 1
    68   36   37 ar
    69   36   63 1
    70   37   64 1
@<TRIPOS>MOLECULE
CHEMBL594933
   60    65     0     0     0
SMALL
USER_CHARGES

@<TRIPOS>ATOM
      1 C1         -3.2088   -0.1041   -0.3271 C.3       1 <0>        -0.0808
      2 C2         -1.9804   -0.9678   -0.2008 C.2       1 <0>         0.1007
      3 C3         -1.1314   -1.3535   -1.2622 C.ar      1 <0>        -0.1412
      4 C4         -1.1101   -1.1147   -2.6421 C.ar      1 <0>        -0.0655
      5 C5         -0.0903   -1.6735   -3.3968 C.ar      1 <0>         0.1017
      6 N1          0.8534   -2.4234   -2.8296 N.ar      1 <0>        -0.4101
      7 C6          0.8726   -2.6734   -1.5396 C.ar      1 <0>         0.1173
      8 C7         -0.1112   -2.1535   -0.7038 C.ar      1 <0>         0.0817
      9 N2         -0.3665   -2.2257    0.6404 N.pl3     1 <0>        -0.4856
     10 H1          0.1628   -2.7074    1.2951 H         1 <0>         0.4494
     11 N3         -1.5211   -1.4785    0.9058 N.2       1 <0>        -0.2301
     12 C8         -0.0495   -1.4330   -4.8587 C.ar      1 <0>        -0.0233
     13 C9         -0.1679   -0.1396   -5.3684 C.ar      1 <0>        -0.0809
     14 C10        -0.1231    0.0335   -6.7464 C.ar      1 <0>         0.0578
     15 C11         0.0366   -1.0747   -7.5677 C.ar      1 <0>         0.0383
     16 N4          0.1458   -2.2862   -7.0618 N.ar      1 <0>        -0.4412
     17 C12         0.1149   -2.5025   -5.7539 C.ar      1 <0>         0.2166
     18 C13         0.2482   -3.8832   -5.2335 C.2       1 <0>        -0.1426
     19 C14        -0.5360   -4.5049   -4.1597 C.2       1 <0>        -0.1855
     20 C15        -0.0664   -5.7573   -4.0351 C.2       1 <0>        -0.0289
     21 O1          0.9188   -5.9456   -4.9263 O.3       1 <0>        -0.1754
     22 C16         1.1181   -4.8389   -5.6556 C.2       1 <0>         0.0200
     23 O2         -0.2351    1.2764   -7.2856 O.3       1 <0>        -0.3217
     24 C17        -0.1797    1.3729   -8.7103 C.3       1 <0>         0.0259
     25 C18        -0.3217    2.8379   -9.1281 C.3       1 <0>         0.0434
     26 H2         -1.2349    3.2510   -8.6997 H         1 <0>         0.1530
     27 C19        -0.3877    2.9290  -10.6540 C.3       1 <0>        -0.0556
     28 C20        -0.6504    4.3559  -11.0611 C.2       1 <0>        -0.2373
     29 C21        -1.8471    4.9029  -11.3271 C.2       1 <0>         0.1038
     30 N5         -1.6935    6.2204  -11.6633 N.pl3     1 <0>        -0.5846
     31 H3         -2.4163    6.8238  -11.8968 H         1 <0>         0.4265
     32 C22        -0.3604    6.5620  -11.6209 C.ar      1 <0>         0.0988
     33 C23         0.3510    5.4108  -11.2357 C.ar      1 <0>        -0.1171
     34 C24         1.7396    5.4619  -11.1028 C.ar      1 <0>        -0.1139
     35 C25         2.4015    6.6328  -11.3444 C.ar      1 <0>        -0.1192
     36 C26         1.7041    7.7723  -11.7207 C.ar      1 <0>        -0.0932
     37 C27         0.3343    7.7416  -11.8668 C.ar      1 <0>        -0.1111
     38 N6          0.8359    3.6003   -8.6416 N.4       1 <0>        -0.6364
     39 H4         -2.9305    0.9430   -0.2083 H         1 <0>         0.0861
     40 H5         -3.6573   -0.2517   -1.3095 H         1 <0>         0.0826
     41 H6         -3.9272   -0.3790    0.4452 H         1 <0>         0.0850
     42 H7         -1.8725   -0.5083   -3.1084 H         1 <0>         0.1405
     43 H8          1.6584   -3.2872   -1.1246 H         1 <0>         0.1665
     44 H9         -0.2917    0.7061   -4.7083 H         1 <0>         0.1493
     45 H10         0.0716   -0.9413   -8.6388 H         1 <0>         0.1609
     46 H11        -1.3292   -4.0484   -3.5863 H         1 <0>         0.1418
     47 H12        -0.4238   -6.4938   -3.3307 H         1 <0>         0.2032
     48 H13         1.8477   -4.7249   -6.4437 H         1 <0>         0.2060
     49 H14         0.7758    0.9853   -9.0638 H         1 <0>         0.0919
     50 H15        -0.9916    0.7905   -9.1457 H         1 <0>         0.1140
     51 H16         0.5601    2.5985  -11.0789 H         1 <0>         0.0998
     52 H17        -1.1923    2.2922  -11.0215 H         1 <0>         0.1219
     53 H18        -2.7912    4.3804  -11.2826 H         1 <0>         0.1791
     54 H19         2.2888    4.5794  -10.8096 H         1 <0>         0.1150
     55 H20         3.4759    6.6719  -11.2415 H         1 <0>         0.1311
     56 H21         2.2412    8.6904  -11.9075 H         1 <0>         0.1352
     57 H22        -0.1995    8.6339  -12.1589 H         1 <0>         0.1293
     58 H23         0.7422    4.5664   -8.9171 H         1 <0>         0.4379
     59 H24         0.8793    3.5403   -7.6353 H         1 <0>         0.4394
     60 H25         1.6812    3.2179   -9.0382 H         1 <0>         0.4299
@<TRIPOS>BOND
     1    1    2 1
     2    1   39 1
     3    1   40 1
     4    1   41 1
     5    2   11 2
     6    2    3 1
     7    3    8 ar
     8    3    4 ar
     9    4    5 ar
    10    4   42 1
    11    5    6 ar
    12    5   12 1
    13    6    7 ar
    14    7    8 ar
    15    7   43 1
    16    8    9 1
    17    9   10 1
    18    9   11 1
    19   12   17 ar
    20   12   13 ar
    21   13   14 ar
    22   13   44 1
    23   14   15 ar
    24   14   23 1
    25   15   16 ar
    26   15   45 1
    27   16   17 ar
    28   17   18 1
    29   18   22 2
    30   18   19 1
    31   19   20 2
    32   19   46 1
    33   20   21 1
    34   20   47 1
    35   21   22 1
    36   22   48 1
    37   23   24 1
    38   24   25 1
    39   24   49 1
    40   24   50 1
    41   25   26 1
    42   25   27 1
    43   25   38 1
    44   27   28 1
    45   27   51 1
    46   27   52 1
    47   28   33 1
    48   28   29 2
    49   29   30 1
    50   29   53 1
    51   30   31 1
    52   30   32 1
    53   32   37 ar
    54   32   33 ar
    55   33   34 ar
    56   34   35 ar
    57   34   54 1
    58   35   36 ar
    59   35   55 1
    60   36   37 ar
    61   36   56 1
    62   37   57 1
    63   38   58 1
    64   38   59 1
    65   38   60 1
@<TRIPOS>MOLECULE
CHEMBL226712
   39    42     0     0     0
SMALL
USER_CHARGES

@<TRIPOS>ATOM
      1 C1         -0.0168    1.3901    0.0097 C.ar      1 <0>        -0.0600
      2 C2          1.1703    2.0935    0.0021 C.ar      1 <0>        -0.0786
      3 C3          2.3775    1.4182   -0.0135 C.ar      1 <0>        -0.1310
      4 C4          2.4026    0.0350   -0.0216 C.ar      1 <0>        -0.1152
      5 C5          1.2219   -0.6792   -0.0137 C.ar      1 <0>        -0.0946
      6 C6          0.0021   -0.0041    0.0020 C.ar      1 <0>        -0.0152
      7 C7         -1.2695   -0.7654    0.0106 C.ar      1 <0>         0.2321
      8 C8         -1.3829   -1.9754   -0.6786 C.ar      1 <0>        -0.0583
      9 C9         -2.6124   -2.6601   -0.6394 C.ar      1 <0>         0.3033
     10 N1         -2.4581   -3.7790   -1.3725 N.2       1 <0>        -0.4806
     11 H1          0.3804   -2.5437   -1.6723 H         1 <0>         0.4280
     12 C10        -1.2458   -3.8294   -1.8498 C.2       1 <0>         0.3165
     13 N2         -0.5430   -2.7436   -1.4525 N.pl3     1 <0>        -0.5836
     14 N3         -3.6201   -2.1265    0.0541 N.ar      1 <0>        -0.4676
     15 C11        -3.4665   -0.9841    0.6876 C.ar      1 <0>         0.3076
     16 N4         -2.3297   -0.3145    0.6803 N.ar      1 <0>        -0.4948
     17 C12         3.6705    2.1923   -0.0222 C.3       1 <0>         0.1394
     18 C13         4.2143    2.2461   -1.4266 C.ar      1 <0>        -0.1418
     19 C14         4.8945    1.1606   -1.9462 C.ar      1 <0>        -0.1068
     20 C15         5.3935    1.2094   -3.2342 C.ar      1 <0>        -0.0973
     21 C16         5.2121    2.3449   -4.0035 C.ar      1 <0>        -0.0119
     22 C17         4.5313    3.4310   -3.4829 C.ar      1 <0>        -0.0975
     23 C18         4.0279    3.3789   -2.1967 C.ar      1 <0>        -0.0689
     24 Cl1         5.8391    2.4072   -5.6211 Cl        1 <0>        -0.0356
     25 N5          4.6444    1.5287    0.8549 N.4       1 <0>        -0.6357
     26 H2         -0.9587    1.9183    0.0260 H         1 <0>         0.1499
     27 H3          1.1569    3.1734    0.0081 H         1 <0>         0.1440
     28 H4          3.3481   -0.4868   -0.0345 H         1 <0>         0.1257
     29 H5          1.2426   -1.7590   -0.0204 H         1 <0>         0.1313
     30 H6         -0.8585   -4.6230   -2.4716 H         1 <0>         0.2376
     31 H7         -4.3026   -0.5805    1.2394 H         1 <0>         0.2148
     32 H8          3.4897    3.2055    0.3366 H         1 <0>         0.1608
     33 H9          5.0364    0.2744   -1.3455 H         1 <0>         0.1276
     34 H10         5.9252    0.3614   -3.6400 H         1 <0>         0.1472
     35 H11         4.3897    4.3178   -4.0828 H         1 <0>         0.1495
     36 H12         3.4922    4.2248   -1.7919 H         1 <0>         0.1456
     37 H13         4.8117    0.5908    0.5228 H         1 <0>         0.4288
     38 H14         5.5101    2.0470    0.8491 H         1 <0>         0.4425
     39 H15         4.2803    1.4927    1.7952 H         1 <0>         0.4428
@<TRIPOS>BOND
     1    1    6 ar
     2    1    2 ar
     3    1   26 1
     4    2    3 ar
     5    2   27 1
     6    3    4 ar
     7    3   17 1
     8    4    5 ar
     9    4   28 1
    10    5    6 ar
    11    5   29 1
    12    6    7 1
    13    7   16 ar
    14    7    8 ar
    15    8    9 ar
    16    8   13 1
    17    9   10 1
    18    9   14 ar
    19   10   12 2
    20   11   13 1
    21   12   30 1
    22   12   13 1
    23   14   15 ar
    24   15   31 1
    25   15   16 ar
    26   17   18 1
    27   17   25 1
    28   17   32 1
    29   18   23 ar
    30   18   19 ar
    31   19   20 ar
    32   19   33 1
    33   20   21 ar
    34   20   34 1
    35   21   22 ar
    36   21   24 1
    37   22   23 ar
    38   22   35 1
    39   23   36 1
    40   25   37 1
    41   25   38 1
    42   25   39 1
@<TRIPOS>MOLECULE
CHEMBL226712
   39    42     0     0     0
SMALL
USER_CHARGES

@<TRIPOS>ATOM
      1 C1         -0.0168    1.3905    0.0097 C.ar      1 <0>        -0.0621
      2 C2          1.1703    2.0938    0.0021 C.ar      1 <0>        -0.0891
      3 C3          2.3776    1.4184   -0.0130 C.ar      1 <0>        -0.1302
      4 C4          2.4028    0.0352   -0.0207 C.ar      1 <0>        -0.1239
      5 C5          1.2223   -0.6792   -0.0133 C.ar      1 <0>        -0.0576
      6 C6          0.0021   -0.0041    0.0020 C.ar      1 <0>        -0.0169
      7 C7         -1.2687   -0.7650    0.0106 C.ar      1 <0>         0.2638
      8 C8         -1.3834   -1.9831   -0.6828 C.ar      1 <0>        -0.0369
      9 C9         -2.6176   -2.6598   -0.6363 C.ar      1 <0>         0.2790
     10 N1         -2.4520   -3.7979   -1.3853 N.pl3     1 <0>        -0.5787
     11 H1         -3.1224   -4.4794   -1.5498 H         1 <0>         0.4389
     12 C10        -1.1732   -3.7947   -1.8554 C.2       1 <0>         0.2940
     13 N2         -0.5487   -2.7294   -1.4420 N.2       1 <0>        -0.4782
     14 N3         -3.6184   -2.1284    0.0538 N.ar      1 <0>        -0.5057
     15 C11        -3.4648   -0.9844    0.6882 C.ar      1 <0>         0.3232
     16 N4         -2.3281   -0.3153    0.6793 N.ar      1 <0>        -0.5081
     17 C12         3.6705    2.1926   -0.0217 C.3       1 <0>         0.1397
     18 C13         4.2146    2.2460   -1.4261 C.ar      1 <0>        -0.1397
     19 C14         4.8949    1.1604   -1.9452 C.ar      1 <0>        -0.1048
     20 C15         5.3942    1.2088   -3.2331 C.ar      1 <0>        -0.0968
     21 C16         5.2129    2.3441   -4.0028 C.ar      1 <0>        -0.0125
     22 C17         4.5318    3.4303   -3.4827 C.ar      1 <0>        -0.0986
     23 C18         4.0282    3.3785   -2.1966 C.ar      1 <0>        -0.0697
     24 Cl1         5.8401    2.4058   -5.6203 Cl        1 <0>        -0.0382
     25 N5          4.6442    1.5294    0.8558 N.4       1 <0>        -0.6356
     26 H2         -0.9587    1.9188    0.0260 H         1 <0>         0.1456
     27 H3          1.1569    3.1737    0.0077 H         1 <0>         0.1403
     28 H4          3.3484   -0.4865   -0.0329 H         1 <0>         0.1230
     29 H5          1.2433   -1.7590   -0.0196 H         1 <0>         0.1452
     30 H6         -0.7409   -4.5629   -2.4793 H         1 <0>         0.2357
     31 H7         -4.3007   -0.5805    1.2400 H         1 <0>         0.2145
     32 H8          3.4896    3.2060    0.3367 H         1 <0>         0.1591
     33 H9          5.0367    0.2743   -1.3442 H         1 <0>         0.1284
     34 H10         5.9260    0.3607   -3.6385 H         1 <0>         0.1469
     35 H11         4.3903    4.3169   -4.0829 H         1 <0>         0.1485
     36 H12         3.4924    4.2246   -1.7922 H         1 <0>         0.1449
     37 H13         4.2799    1.4936    1.7960 H         1 <0>         0.4422
     38 H14         4.8117    0.5913    0.5240 H         1 <0>         0.4295
     39 H15         5.5099    2.0478    0.8500 H         1 <0>         0.4410
@<TRIPOS>BOND
     1    1    6 ar
     2    1    2 ar
     3    1   26 1
     4    2    3 ar
     5    2   27 1
     6    3    4 ar
     7    3   17 1
     8    4    5 ar
     9    4   28 1
    10    5    6 ar
    11    5   29 1
    12    6    7 1
    13    7   16 ar
    14    7    8 ar
    15    8   13 1
    16    8    9 ar
    17    9   10 1
    18    9   14 ar
    19   10   11 1
    20   10   12 1
    21   12   13 2
    22   12   30 1
    23   14   15 ar
    24   15   16 ar
    25   15   31 1
    26   17   18 1
    27   17   25 1
    28   17   32 1
    29   18   23 ar
    30   18   19 ar
    31   19   20 ar
    32   19   33 1
    33   20   21 ar
    34   20   34 1
    35   21   22 ar
    36   21   24 1
    37   22   23 ar
    38   22   35 1
    39   23   36 1
    40   25   37 1
    41   25   38 1
    42   25   39 1
@<TRIPOS>MOLECULE
CHEMBL226712
   39    42     0     0     0
SMALL
USER_CHARGES

@<TRIPOS>ATOM
      1 C1         -0.0168    1.3901    0.0097 C.ar      1 <0>        -0.0600
      2 C2          1.1703    2.0935    0.0021 C.ar      1 <0>        -0.0787
      3 C3          2.3775    1.4182   -0.0135 C.ar      1 <0>        -0.1308
      4 C4          2.4026    0.0350   -0.0216 C.ar      1 <0>        -0.1153
      5 C5          1.2219   -0.6792   -0.0137 C.ar      1 <0>        -0.0942
      6 C6          0.0021   -0.0041    0.0020 C.ar      1 <0>        -0.0156
      7 C7         -1.2695   -0.7654    0.0106 C.ar      1 <0>         0.2324
      8 C8         -1.3829   -1.9754   -0.6786 C.ar      1 <0>        -0.0584
      9 C9         -2.6124   -2.6601   -0.6394 C.ar      1 <0>         0.3032
     10 N1         -2.4581   -3.7790   -1.3725 N.2       1 <0>        -0.4804
     11 H1          0.3804   -2.5437   -1.6723 H         1 <0>         0.4272
     12 C10        -1.2458   -3.8294   -1.8498 C.2       1 <0>         0.3158
     13 N2         -0.5430   -2.7436   -1.4525 N.pl3     1 <0>        -0.5840
     14 N3         -3.6201   -2.1265    0.0541 N.ar      1 <0>        -0.4677
     15 C11        -3.4665   -0.9841    0.6876 C.ar      1 <0>         0.3084
     16 N4         -2.3297   -0.3145    0.6803 N.ar      1 <0>        -0.4941
     17 C12         3.6705    2.1923   -0.0222 C.3       1 <0>         0.1397
     18 C13         4.2421    2.2311    1.3717 C.ar      1 <0>        -0.1423
     19 C14         4.9421    1.1445    1.8619 C.ar      1 <0>        -0.1067
     20 C15         5.4666    1.1795    3.1402 C.ar      1 <0>        -0.0968
     21 C16         5.2909    2.3024    3.9292 C.ar      1 <0>        -0.0115
     22 C17         4.5903    3.3896    3.4380 C.ar      1 <0>        -0.0971
     23 C18         4.0711    3.3555    2.1575 C.ar      1 <0>        -0.0689
     24 Cl1         5.9489    2.3469    5.5350 Cl        1 <0>        -0.0355
     25 N5          4.6267    1.5383   -0.9255 N.4       1 <0>        -0.6357
     26 H2         -0.9587    1.9183    0.0260 H         1 <0>         0.1499
     27 H3          1.1569    3.1734    0.0081 H         1 <0>         0.1440
     28 H4          3.3481   -0.4868   -0.0345 H         1 <0>         0.1256
     29 H5          1.2426   -1.7590   -0.0204 H         1 <0>         0.1314
     30 H6         -0.8585   -4.6230   -2.4716 H         1 <0>         0.2375
     31 H7         -4.3026   -0.5805    1.2394 H         1 <0>         0.2149
     32 H8          3.4828    3.2093   -0.3664 H         1 <0>         0.1607
     33 H9          5.0789    0.2679    1.2461 H         1 <0>         0.1271
     34 H10         6.0131    0.3304    3.5232 H         1 <0>         0.1472
     35 H11         4.4525    4.2662    4.0535 H         1 <0>         0.1497
     36 H12         3.5282    4.2060    1.7722 H         1 <0>         0.1456
     37 H13         4.8005    0.5968   -0.6069 H         1 <0>         0.4289
     38 H14         4.2440    1.5123   -1.8587 H         1 <0>         0.4417
     39 H15         5.4924    2.0566   -0.9313 H         1 <0>         0.4427
@<TRIPOS>BOND
     1    1    6 ar
     2    1    2 ar
     3    1   26 1
     4    2    3 ar
     5    2   27 1
     6    3    4 ar
     7    3   17 1
     8    4    5 ar
     9    4   28 1
    10    5    6 ar
    11    5   29 1
    12    6    7 1
    13    7   16 ar
    14    7    8 ar
    15    8    9 ar
    16    8   13 1
    17    9   10 1
    18    9   14 ar
    19   10   12 2
    20   11   13 1
    21   12   30 1
    22   12   13 1
    23   14   15 ar
    24   15   31 1
    25   15   16 ar
    26   17   18 1
    27   17   25 1
    28   17   32 1
    29   18   23 ar
    30   18   19 ar
    31   19   20 ar
    32   19   33 1
    33   20   21 ar
    34   20   34 1
    35   21   22 ar
    36   21   24 1
    37   22   23 ar
    38   22   35 1
    39   23   36 1
    40   25   37 1
    41   25   38 1
    42   25   39 1
@<TRIPOS>MOLECULE
CHEMBL226712
   39    42     0     0     0
SMALL
USER_CHARGES

@<TRIPOS>ATOM
      1 C1         -0.0168    1.3905    0.0097 C.ar      1 <0>        -0.0621
      2 C2          1.1703    2.0938    0.0021 C.ar      1 <0>        -0.0892
      3 C3          2.3776    1.4184   -0.0130 C.ar      1 <0>        -0.1300
      4 C4          2.4028    0.0352   -0.0207 C.ar      1 <0>        -0.1238
      5 C5          1.2223   -0.6792   -0.0133 C.ar      1 <0>        -0.0574
      6 C6          0.0021   -0.0041    0.0020 C.ar      1 <0>        -0.0171
      7 C7         -1.2687   -0.7650    0.0106 C.ar      1 <0>         0.2642
      8 C8         -1.3834   -1.9831   -0.6828 C.ar      1 <0>        -0.0372
      9 C9         -2.6176   -2.6598   -0.6363 C.ar      1 <0>         0.2791
     10 N1         -2.4520   -3.7979   -1.3853 N.pl3     1 <0>        -0.5787
     11 H1         -3.1224   -4.4794   -1.5498 H         1 <0>         0.4389
     12 C10        -1.1732   -3.7947   -1.8554 C.2       1 <0>         0.2935
     13 N2         -0.5487   -2.7294   -1.4420 N.2       1 <0>        -0.4791
     14 N3         -3.6184   -2.1284    0.0538 N.ar      1 <0>        -0.5059
     15 C11        -3.4648   -0.9844    0.6882 C.ar      1 <0>         0.3240
     16 N4         -2.3281   -0.3153    0.6793 N.ar      1 <0>        -0.5076
     17 C12         3.6705    2.1926   -0.0217 C.3       1 <0>         0.1398
     18 C13         4.2418    2.2319    1.3722 C.ar      1 <0>        -0.1393
     19 C14         4.9418    1.1455    1.8630 C.ar      1 <0>        -0.1061
     20 C15         5.4660    1.1810    3.1413 C.ar      1 <0>        -0.0970
     21 C16         5.2901    2.3041    3.9299 C.ar      1 <0>        -0.0127
     22 C17         4.5895    3.3911    3.4382 C.ar      1 <0>        -0.0978
     23 C18         4.0706    3.3566    2.1576 C.ar      1 <0>        -0.0696
     24 Cl1         5.9477    2.3492    5.5359 Cl        1 <0>        -0.0379
     25 N5          4.6269    1.5384   -0.9246 N.4       1 <0>        -0.6356
     26 H2         -0.9587    1.9188    0.0260 H         1 <0>         0.1456
     27 H3          1.1569    3.1737    0.0077 H         1 <0>         0.1403
     28 H4          3.3484   -0.4865   -0.0329 H         1 <0>         0.1230
     29 H5          1.2433   -1.7590   -0.0196 H         1 <0>         0.1451
     30 H6         -0.7409   -4.5629   -2.4793 H         1 <0>         0.2356
     31 H7         -4.3007   -0.5805    1.2400 H         1 <0>         0.2146
     32 H8          3.4827    3.2095   -0.3663 H         1 <0>         0.1591
     33 H9          5.0787    0.2687    1.2474 H         1 <0>         0.1281
     34 H10         6.0125    0.3321    3.5247 H         1 <0>         0.1467
     35 H11         4.4516    4.2679    4.0534 H         1 <0>         0.1487
     36 H12         3.5277    4.2069    1.7720 H         1 <0>         0.1451
     37 H13         5.4926    2.0567   -0.9304 H         1 <0>         0.4409
     38 H14         4.8007    0.5970   -0.6057 H         1 <0>         0.4296
     39 H15         4.2444    1.5120   -1.8579 H         1 <0>         0.4423
@<TRIPOS>BOND
     1    1    6 ar
     2    1    2 ar
     3    1   26 1
     4    2    3 ar
     5    2   27 1
     6    3    4 ar
     7    3   17 1
     8    4    5 ar
     9    4   28 1
    10    5    6 ar
    11    5   29 1
    12    6    7 1
    13    7   16 ar
    14    7    8 ar
    15    8   13 1
    16    8    9 ar
    17    9   10 1
    18    9   14 ar
    19   10   11 1
    20   10   12 1
    21   12   13 2
    22   12   30 1
    23   14   15 ar
    24   15   16 ar
    25   15   31 1
    26   17   18 1
    27   17   25 1
    28   17   32 1
    29   18   23 ar
    30   18   19 ar
    31   19   20 ar
    32   19   33 1
    33   20   21 ar
    34   20   34 1
    35   21   22 ar
    36   21   24 1
    37   22   23 ar
    38   22   35 1
    39   23   36 1
    40   25   37 1
    41   25   38 1
    42   25   39 1
@<TRIPOS>MOLECULE
CHEMBL180231
   72    79     0     0     0
SMALL
USER_CHARGES

@<TRIPOS>ATOM
      1 C1         -0.3284    0.5410   -0.9212 C.ar      1 <0>        -0.0995
      2 C2          0.7317    1.4289   -0.8800 C.ar      1 <0>        -0.1176
      3 C3          2.0149    0.9665   -0.6714 C.ar      1 <0>        -0.0733
      4 C4          2.2419   -0.3991   -0.5014 C.ar      1 <0>        -0.0537
      5 C5          1.1690   -1.2892   -0.5434 C.ar      1 <0>        -0.0888
      6 C6         -0.1096   -0.8147   -0.7533 C.ar      1 <0>        -0.1265
      7 C7          3.6170   -0.9021   -0.2775 C.ar      1 <0>         0.1870
      8 C8          3.8657   -1.8962    0.7642 C.ar      1 <0>         0.1219
      9 N1          5.0854   -2.3521    0.9742 N.ar      1 <0>        -0.3873
     10 C9          6.1022   -1.9012    0.2274 C.ar      1 <0>         0.0273
     11 C10         7.4038   -2.3694    0.4303 C.ar      1 <0>         0.0223
     12 C11         8.4390   -1.8843   -0.3594 C.ar      1 <0>        -0.1504
     13 C12         9.8757   -2.1623   -0.4004 C.2       1 <0>         0.0872
     14 N2         10.3976   -1.4299   -1.3396 N.2       1 <0>        -0.2215
     15 N3          9.4113   -0.6563   -1.9577 N.pl3     1 <0>        -0.5165
     16 H1          9.5596   -0.0323   -2.6853 H         1 <0>         0.4480
     17 C13         8.1957   -0.9213   -1.3683 C.ar      1 <0>         0.1613
     18 C14         6.9209   -0.4389   -1.5935 C.ar      1 <0>        -0.1172
     19 C15         5.8527   -0.9043   -0.8178 C.ar      1 <0>         0.1248
     20 N4          4.6084   -0.4537   -1.0235 N.ar      1 <0>        -0.4213
     21 C16         2.7412   -2.3946    1.5897 C.ar      1 <0>         0.0039
     22 C17         1.8058   -1.5012    2.1112 C.ar      1 <0>        -0.0807
     23 C18         0.7605   -1.9714    2.8794 C.ar      1 <0>        -0.0955
     24 C19         0.6397   -3.3260    3.1332 C.ar      1 <0>        -0.1535
     25 C20         1.5647   -4.2171    2.6192 C.ar      1 <0>        -0.0908
     26 C21         2.6105   -3.7596    1.8439 C.ar      1 <0>        -0.0803
     27 C22        -0.5040   -3.8330    3.9735 C.3       1 <0>         0.0438
     28 N5         -1.6490   -4.1422    3.1067 N.4       1 <0>        -0.3852
     29 C23        -2.1343   -2.9067    2.4802 C.3       1 <0>        -0.0074
     30 C24        -3.2749   -3.2342    1.5141 C.3       1 <0>        -0.1649
     31 C25        -4.4171   -3.8987    2.2880 C.3       1 <0>         0.1609
     32 C26        -3.8819   -5.1455    2.9980 C.3       1 <0>        -0.1670
     33 C27        -2.7188   -4.7473    3.9091 C.3       1 <0>         0.0011
     34 N6         -5.4807   -4.2836    1.3570 N.am      1 <0>        -0.5372
     35 C28        -6.7966   -3.8282    1.3893 C.ar      1 <0>         0.0797
     36 C29        -7.4802   -2.9522    2.2188 C.ar      1 <0>        -0.1043
     37 C30        -8.8177   -2.6934    1.9923 C.ar      1 <0>        -0.1029
     38 C31        -9.4789   -3.3052    0.9409 C.ar      1 <0>        -0.0991
     39 C32        -8.8065   -4.1795    0.1098 C.ar      1 <0>        -0.1001
     40 C33        -7.4633   -4.4449    0.3287 C.ar      1 <0>         0.0915
     41 N7         -6.5318   -5.2559   -0.3152 N.am      1 <0>        -0.6395
     42 H2         -6.7032   -5.8110   -1.0919 H         1 <0>         0.4396
     43 C34        -5.3514   -5.1335    0.3208 C.2       1 <0>         0.6857
     44 O1         -4.3244   -5.7067    0.0085 O.2       1 <0>        -0.5577
     45 H3         -1.3315    0.9081   -1.0806 H         1 <0>         0.1270
     46 H4          0.5547    2.4861   -1.0118 H         1 <0>         0.1315
     47 H5          2.8418    1.6605   -0.6402 H         1 <0>         0.1305
     48 H6          1.3386   -2.3478   -0.4128 H         1 <0>         0.1219
     49 H7         -0.9412   -1.5030   -0.7864 H         1 <0>         0.1233
     50 H8          7.6036   -3.1036    1.1967 H         1 <0>         0.1545
     51 H9         10.4079   -2.8533    0.2365 H         1 <0>         0.2099
     52 H10         6.7489    0.2956   -2.3664 H         1 <0>         0.1479
     53 H11         1.8995   -0.4434    1.9143 H         1 <0>         0.1380
     54 H12         0.0355   -1.2806    3.2838 H         1 <0>         0.1359
     55 H13         1.4655   -5.2733    2.8213 H         1 <0>         0.1364
     56 H14         3.3291   -4.4567    1.4388 H         1 <0>         0.1399
     57 H15        -0.1946   -4.7345    4.5023 H         1 <0>         0.1398
     58 H16        -0.7910   -3.0686    4.6957 H         1 <0>         0.1380
     59 H17        -2.4959   -2.2266    3.2514 H         1 <0>         0.1328
     60 H18        -1.3194   -2.4333    1.9325 H         1 <0>         0.1399
     61 H19        -3.6349   -2.3153    1.0513 H         1 <0>         0.1172
     62 H20        -2.9142   -3.9141    0.7423 H         1 <0>         0.1072
     63 H21        -4.8121   -3.2004    3.0259 H         1 <0>         0.1149
     64 H22        -4.6760   -5.5929    3.5959 H         1 <0>         0.1178
     65 H23        -3.5339   -5.8652    2.2570 H         1 <0>         0.1075
     66 H24        -2.3356   -5.6327    4.4163 H         1 <0>         0.1385
     67 H25        -3.0680   -4.0279    4.6499 H         1 <0>         0.1334
     68 H26        -6.9679   -2.4737    3.0403 H         1 <0>         0.1289
     69 H27        -9.3503   -2.0111    2.6382 H         1 <0>         0.1385
     70 H28       -10.5250   -3.0981    0.7703 H         1 <0>         0.1398
     71 H29        -9.3258   -4.6554   -0.7090 H         1 <0>         0.1365
     72 H30        -1.3608   -4.7902    2.3890 H         1 <0>         0.4262
@<TRIPOS>BOND
     1    1    6 ar
     2    1    2 ar
     3    1   45 1
     4    2    3 ar
     5    2   46 1
     6    3    4 ar
     7    3   47 1
     8    4    5 ar
     9    4    7 1
    10    5    6 ar
    11    5   48 1
    12    6   49 1
    13    7   20 ar
    14    7    8 ar
    15    8    9 ar
    16    8   21 1
    17    9   10 ar
    18   10   19 ar
    19   10   11 ar
    20   11   12 ar
    21   11   50 1
    22   12   17 ar
    23   12   13 1
    24   13   14 2
    25   13   51 1
    26   14   15 1
    27   15   16 1
    28   15   17 1
    29   17   18 ar
    30   18   19 ar
    31   18   52 1
    32   19   20 ar
    33   21   26 ar
    34   21   22 ar
    35   22   23 ar
    36   22   53 1
    37   23   24 ar
    38   23   54 1
    39   24   25 ar
    40   24   27 1
    41   25   26 ar
    42   25   55 1
    43   26   56 1
    44   27   28 1
    45   27   57 1
    46   27   58 1
    47   28   33 1
    48   28   29 1
    49   28   72 1
    50   29   30 1
    51   29   59 1
    52   29   60 1
    53   30   31 1
    54   30   61 1
    55   30   62 1
    56   31   32 1
    57   31   34 1
    58   31   63 1
    59   32   33 1
    60   32   64 1
    61   32   65 1
    62   33   66 1
    63   33   67 1
    64   34   43 am
    65   34   35 1
    66   35   40 ar
    67   35   36 ar
    68   36   37 ar
    69   36   68 1
    70   37   38 ar
    71   37   69 1
    72   38   39 ar
    73   38   70 1
    74   39   40 ar
    75   39   71 1
    76   40   41 1
    77   41   42 1
    78   41   43 am
    79   43   44 2
@<TRIPOS>MOLECULE
CHEMBL180231
   72    79     0     0     0
SMALL
USER_CHARGES

@<TRIPOS>ATOM
      1 C1         -0.3309    0.5296   -0.9312 C.ar      1 <0>        -0.1010
      2 C2          0.7273    1.4198   -0.8881 C.ar      1 <0>        -0.1177
      3 C3          2.0110    0.9602   -0.6767 C.ar      1 <0>        -0.0736
      4 C4          2.2407   -0.4051   -0.5064 C.ar      1 <0>        -0.0512
      5 C5          1.1695   -1.2976   -0.5509 C.ar      1 <0>        -0.0895
      6 C6         -0.1096   -0.8257   -0.7630 C.ar      1 <0>        -0.1269
      7 C7          3.6160   -0.9051   -0.2796 C.ar      1 <0>         0.1904
      8 C8          3.8654   -1.8982    0.7668 C.ar      1 <0>         0.1258
      9 N1          5.0829   -2.3519    0.9797 N.ar      1 <0>        -0.3880
     10 C9          6.1059   -1.9026    0.2328 C.ar      1 <0>         0.0038
     11 C10         7.3936   -2.3794    0.4538 C.ar      1 <0>         0.0435
     12 C11         8.4551   -1.9062   -0.3291 C.ar      1 <0>        -0.1997
     13 C12         9.8191   -2.1726   -0.3610 C.2       1 <0>         0.1134
     14 N2         10.3625   -1.4238   -1.3259 N.pl3     1 <0>        -0.3880
     15 N3          9.3771   -0.6514   -1.9488 N.2       1 <0>        -0.3054
     16 H1         11.3038   -1.4170   -1.5598 H         1 <0>         0.4536
     17 C13         8.2052   -0.9068   -1.3820 C.ar      1 <0>         0.1201
     18 C14         6.9040   -0.4324   -1.5981 C.ar      1 <0>        -0.0628
     19 C15         5.8561   -0.9062   -0.8176 C.ar      1 <0>         0.0988
     20 N4          4.6056   -0.4575   -1.0241 N.ar      1 <0>        -0.4195
     21 C16         2.7405   -2.3956    1.5917 C.ar      1 <0>         0.0065
     22 C17         1.8052   -1.5014    2.1127 C.ar      1 <0>        -0.0810
     23 C18         0.7595   -1.9709    2.8806 C.ar      1 <0>        -0.0954
     24 C19         0.6374   -3.3255    3.1341 C.ar      1 <0>        -0.1552
     25 C20         1.5618   -4.2174    2.6202 C.ar      1 <0>        -0.0912
     26 C21         2.6088   -3.7607    1.8461 C.ar      1 <0>        -0.0813
     27 C22        -0.5069   -3.8315    3.9740 C.3       1 <0>         0.0443
     28 N5         -1.6519   -4.1397    3.1069 N.4       1 <0>        -0.3852
     29 C23        -2.1360   -2.9037    2.4804 C.3       1 <0>        -0.0074
     30 C24        -3.2766   -3.2301    1.5139 C.3       1 <0>        -0.1649
     31 C25        -4.4196   -3.8937    2.2874 C.3       1 <0>         0.1608
     32 C26        -3.8857   -5.1411    2.9974 C.3       1 <0>        -0.1669
     33 C27        -2.7225   -4.7439    3.9089 C.3       1 <0>         0.0012
     34 N6         -5.4833   -4.2776    1.3561 N.am      1 <0>        -0.5372
     35 C28        -6.7988   -3.8211    1.3881 C.ar      1 <0>         0.0799
     36 C29        -7.4819   -2.9446    2.2174 C.ar      1 <0>        -0.1043
     37 C30        -8.8191   -2.6846    1.9905 C.ar      1 <0>        -0.1029
     38 C31        -9.4805   -3.2957    0.9389 C.ar      1 <0>        -0.0992
     39 C32        -8.8086   -4.1705    0.1079 C.ar      1 <0>        -0.1002
     40 C33        -7.4657   -4.4371    0.3272 C.ar      1 <0>         0.0915
     41 N7         -6.5347   -5.2488   -0.3165 N.am      1 <0>        -0.6396
     42 H2         -6.7064   -5.8037   -1.0934 H         1 <0>         0.4396
     43 C34        -5.3544   -5.1275    0.3198 C.2       1 <0>         0.6857
     44 O1         -4.3278   -5.7016    0.0078 O.2       1 <0>        -0.5575
     45 H3         -1.3344    0.8946   -1.0924 H         1 <0>         0.1261
     46 H4          0.5483    2.4766   -1.0205 H         1 <0>         0.1309
     47 H5          2.8363    1.6560   -0.6436 H         1 <0>         0.1307
     48 H6          1.3411   -2.3559   -0.4200 H         1 <0>         0.1216
     49 H7         -0.9397   -1.5157   -0.7977 H         1 <0>         0.1224
     50 H8          7.5749   -3.1118    1.2265 H         1 <0>         0.1475
     51 H9         10.3467   -2.8626    0.2808 H         1 <0>         0.2031
     52 H10         6.7163    0.3005   -2.3689 H         1 <0>         0.1483
     53 H11         1.8997   -0.4437    1.9157 H         1 <0>         0.1381
     54 H12         0.0349   -1.2796    3.2848 H         1 <0>         0.1353
     55 H13         1.4612   -5.2736    2.8216 H         1 <0>         0.1355
     56 H14         3.3270   -4.4584    1.4415 H         1 <0>         0.1392
     57 H15        -0.1985   -4.7334    4.5028 H         1 <0>         0.1392
     58 H16        -0.7935   -3.0670    4.6962 H         1 <0>         0.1376
     59 H17        -2.4972   -2.2234    3.2515 H         1 <0>         0.1326
     60 H18        -1.3206   -2.4309    1.9329 H         1 <0>         0.1404
     61 H19        -3.6357   -2.3109    1.0511 H         1 <0>         0.1172
     62 H20        -2.9163   -3.9103    0.7421 H         1 <0>         0.1072
     63 H21        -4.8142   -3.1951    3.0252 H         1 <0>         0.1148
     64 H22        -4.6803   -5.5879    3.5950 H         1 <0>         0.1175
     65 H23        -3.5381   -5.8609    2.2564 H         1 <0>         0.1075
     66 H24        -2.3402   -5.6297    4.4161 H         1 <0>         0.1382
     67 H25        -3.0713   -4.0243    4.6496 H         1 <0>         0.1332
     68 H26        -6.9694   -2.4666    3.0392 H         1 <0>         0.1290
     69 H27        -9.3513   -2.0020    2.6364 H         1 <0>         0.1385
     70 H28       -10.5264   -3.0877    0.7680 H         1 <0>         0.1397
     71 H29        -9.3281   -4.6459   -0.7110 H         1 <0>         0.1365
     72 H30        -1.3641   -4.7879    2.3891 H         1 <0>         0.4262
@<TRIPOS>BOND
     1    1    6 ar
     2    1    2 ar
     3    1   45 1
     4    2    3 ar
     5    2   46 1
     6    3    4 ar
     7    3   47 1
     8    4    5 ar
     9    4    7 1
    10    5    6 ar
    11    5   48 1
    12    6   49 1
    13    7   20 ar
    14    7    8 ar
    15    8    9 ar
    16    8   21 1
    17    9   10 ar
    18   10   19 ar
    19   10   11 ar
    20   11   12 ar
    21   11   50 1
    22   12   17 ar
    23   12   13 2
    24   13   51 1
    25   13   14 1
    26   14   16 1
    27   14   15 1
    28   15   17 2
    29   17   18 ar
    30   18   19 ar
    31   18   52 1
    32   19   20 ar
    33   21   26 ar
    34   21   22 ar
    35   22   23 ar
    36   22   53 1
    37   23   24 ar
    38   23   54 1
    39   24   25 ar
    40   24   27 1
    41   25   26 ar
    42   25   55 1
    43   26   56 1
    44   27   28 1
    45   27   57 1
    46   27   58 1
    47   28   33 1
    48   28   29 1
    49   28   72 1
    50   29   30 1
    51   29   59 1
    52   29   60 1
    53   30   31 1
    54   30   61 1
    55   30   62 1
    56   31   32 1
    57   31   34 1
    58   31   63 1
    59   32   33 1
    60   32   64 1
    61   32   65 1
    62   33   66 1
    63   33   67 1
    64   34   43 am
    65   34   35 1
    66   35   40 ar
    67   35   36 ar
    68   36   37 ar
    69   36   68 1
    70   37   38 ar
    71   37   69 1
    72   38   39 ar
    73   38   70 1
    74   39   40 ar
    75   39   71 1
    76   40   41 1
    77   41   42 1
    78   41   43 am
    79   43   44 2
@<TRIPOS>MOLECULE
CHEMBL180058
   77    84     0     0     0
SMALL
USER_CHARGES

@<TRIPOS>ATOM
      1 C1          0.3403    1.5456   -0.2759 C.3       1 <0>         0.0898
      2 N1          0.1550    0.0925   -0.2528 N.pl3     1 <0>        -0.1306
      3 N2          0.3665   -0.7017   -1.2454 N.2       1 <0>        -0.2894
      4 C2          0.0928   -1.9281   -0.8461 C.2       1 <0>         0.1972
      5 N3         -0.2940   -1.8376    0.4345 N.2       1 <0>        -0.2692
      6 N4         -0.2392   -0.5917    0.7638 N.2       1 <0>        -0.0505
      7 C3          0.1933   -3.1673   -1.6563 C.ar      1 <0>         0.0202
      8 C4          0.6230   -3.0935   -2.9911 C.ar      1 <0>        -0.0598
      9 C5          0.7229   -4.2132   -3.7534 C.ar      1 <0>        -0.0798
     10 C6          0.3941   -5.4684   -3.2090 C.ar      1 <0>         0.1013
     11 C7         -0.0410   -5.5546   -1.8605 C.ar      1 <0>         0.0802
     12 C8         -0.1315   -4.3849   -1.0892 C.ar      1 <0>        -0.0349
     13 N5         -0.3548   -6.7449   -1.3363 N.ar      1 <0>        -0.3969
     14 C9         -0.2582   -7.8341   -2.0763 C.ar      1 <0>         0.1358
     15 C10         0.1764   -7.7480   -3.4219 C.ar      1 <0>         0.1668
     16 N6          0.4881   -6.5781   -3.9489 N.ar      1 <0>        -0.4090
     17 C11         0.2814   -8.9769   -4.2421 C.ar      1 <0>        -0.0538
     18 C12        -0.2118   -8.9922   -5.5467 C.ar      1 <0>        -0.0736
     19 C13        -0.1107  -10.1399   -6.3060 C.ar      1 <0>        -0.1172
     20 C14         0.4779  -11.2740   -5.7756 C.ar      1 <0>        -0.0996
     21 C15         0.9689  -11.2650   -4.4822 C.ar      1 <0>        -0.1263
     22 C16         0.8789  -10.1216   -3.7150 C.ar      1 <0>        -0.0896
     23 C17        -0.6055   -9.1524   -1.4966 C.ar      1 <0>        -0.0022
     24 C18        -1.3889  -10.0509   -2.2204 C.ar      1 <0>        -0.0784
     25 C19        -1.7091  -11.2774   -1.6751 C.ar      1 <0>        -0.0961
     26 C20        -1.2550  -11.6162   -0.4130 C.ar      1 <0>        -0.1514
     27 C21        -0.4774  -10.7291    0.3097 C.ar      1 <0>        -0.0910
     28 C22        -0.1455   -9.5022   -0.2274 C.ar      1 <0>        -0.0780
     29 C23        -1.6091  -12.9569    0.1771 C.3       1 <0>         0.0436
     30 N7         -0.5812  -13.9402   -0.1896 N.4       1 <0>        -0.3852
     31 C24        -0.5875  -14.1331   -1.6446 C.3       1 <0>        -0.0076
     32 C25         0.5348  -15.0950   -2.0404 C.3       1 <0>        -0.1649
     33 C26         0.3149  -16.4413   -1.3444 C.3       1 <0>         0.1609
     34 C27         0.2489  -16.2176    0.1691 C.3       1 <0>        -0.1670
     35 C28        -0.8628  -15.2141    0.4830 C.3       1 <0>         0.0011
     36 N8          1.4264  -17.3425   -1.6585 N.am      1 <0>        -0.5372
     37 C29         1.3216  -18.5708   -2.3069 C.ar      1 <0>         0.0797
     38 C30         0.2516  -19.2866   -2.8220 C.ar      1 <0>        -0.1043
     39 C31         0.4694  -20.5103   -3.4241 C.ar      1 <0>        -0.1029
     40 C32         1.7512  -21.0253   -3.5151 C.ar      1 <0>        -0.0991
     41 C33         2.8231  -20.3198   -3.0046 C.ar      1 <0>        -0.1001
     42 C34         2.6145  -19.0900   -2.3991 C.ar      1 <0>         0.0916
     43 N9          3.4647  -18.1611   -1.8039 N.am      1 <0>        -0.6396
     44 C35         2.7239  -17.1219   -1.3748 C.2       1 <0>         0.6857
     45 O1          3.1604  -16.1348   -0.8128 O.2       1 <0>        -0.5576
     46 H1          1.3623    1.7863    0.0167 H         1 <0>         0.1076
     47 H2          0.1529    1.9198   -1.2824 H         1 <0>         0.1156
     48 H3         -0.3564    2.0118    0.4207 H         1 <0>         0.1181
     49 H4          0.8771   -2.1342   -3.4171 H         1 <0>         0.1518
     50 H5          1.0546   -4.1400   -4.7786 H         1 <0>         0.1535
     51 H6         -0.4568   -4.4360   -0.0606 H         1 <0>         0.1579
     52 H7         -0.6721   -8.1077   -5.9615 H         1 <0>         0.1307
     53 H8         -0.4921  -10.1529   -7.3163 H         1 <0>         0.1317
     54 H9          0.5541  -12.1701   -6.3736 H         1 <0>         0.1271
     55 H10         1.4274  -12.1534   -4.0737 H         1 <0>         0.1231
     56 H11         1.2662  -10.1146   -2.7069 H         1 <0>         0.1215
     57 H12        -1.7446   -9.7872   -3.2054 H         1 <0>         0.1385
     58 H13        -2.3158  -11.9740   -2.2346 H         1 <0>         0.1365
     59 H14        -0.1261  -10.9991    1.2947 H         1 <0>         0.1372
     60 H15         0.4653   -8.8123    0.3359 H         1 <0>         0.1406
     61 H16        -1.6616  -12.8736    1.2626 H         1 <0>         0.1402
     62 H17        -2.5756  -13.2802   -0.2097 H         1 <0>         0.1383
     63 H18        -1.5471  -14.5492   -1.9514 H         1 <0>         0.1329
     64 H19        -0.4341  -13.1736   -2.1385 H         1 <0>         0.1397
     65 H20         0.5273  -15.2382   -3.1209 H         1 <0>         0.1172
     66 H21         1.4950  -14.6796   -1.7343 H         1 <0>         0.1072
     67 H22        -0.6210  -16.8811   -1.6890 H         1 <0>         0.1149
     68 H23         0.0370  -17.1634    0.6679 H         1 <0>         0.1179
     69 H24         1.2032  -15.8256    0.5210 H         1 <0>         0.1076
     70 H25        -0.9126  -15.0527    1.5598 H         1 <0>         0.1386
     71 H26        -1.8165  -15.6072    0.1309 H         1 <0>         0.1335
     72 H27        -0.7498  -18.8883   -2.7522 H         1 <0>         0.1289
     73 H28        -0.3639  -21.0680   -3.8254 H         1 <0>         0.1385
     74 H29         1.9136  -21.9831   -3.9871 H         1 <0>         0.1398
     75 H30         3.8216  -20.7251   -3.0768 H         1 <0>         0.1365
     76 H31         0.3246  -13.6018    0.0989 H         1 <0>         0.4263
     77 H32         4.4271  -18.2463   -1.7171 H         1 <0>         0.4396
@<TRIPOS>BOND
     1    1    2 1
     2    1   46 1
     3    1   47 1
     4    1   48 1
     5    2    6 1
     6    2    3 1
     7    3    4 2
     8    4    5 1
     9    4    7 1
    10    5    6 2
    11    7   12 ar
    12    7    8 ar
    13    8    9 ar
    14    8   49 1
    15    9   10 ar
    16    9   50 1
    17   10   16 ar
    18   10   11 ar
    19   11   12 ar
    20   11   13 ar
    21   12   51 1
    22   13   14 ar
    23   14   15 ar
    24   14   23 1
    25   15   16 ar
    26   15   17 1
    27   17   22 ar
    28   17   18 ar
    29   18   19 ar
    30   18   52 1
    31   19   20 ar
    32   19   53 1
    33   20   21 ar
    34   20   54 1
    35   21   22 ar
    36   21   55 1
    37   22   56 1
    38   23   28 ar
    39   23   24 ar
    40   24   25 ar
    41   24   57 1
    42   25   26 ar
    43   25   58 1
    44   26   27 ar
    45   26   29 1
    46   27   28 ar
    47   27   59 1
    48   28   60 1
    49   29   30 1
    50   29   61 1
    51   29   62 1
    52   30   35 1
    53   30   31 1
    54   30   76 1
    55   31   32 1
    56   31   63 1
    57   31   64 1
    58   32   33 1
    59   32   65 1
    60   32   66 1
    61   33   34 1
    62   33   36 1
    63   33   67 1
    64   34   35 1
    65   34   68 1
    66   34   69 1
    67   35   70 1
    68   35   71 1
    69   36   44 am
    70   36   37 1
    71   37   42 ar
    72   37   38 ar
    73   38   39 ar
    74   38   72 1
    75   39   40 ar
    76   39   73 1
    77   40   41 ar
    78   40   74 1
    79   41   42 ar
    80   41   75 1
    81   42   43 1
    82   43   44 am
    83   43   77 1
    84   44   45 2
@<TRIPOS>MOLECULE
CHEMBL597793
   49    52     0     0     0
SMALL
USER_CHARGES

@<TRIPOS>ATOM
      1 C1         -0.1759    1.3213    0.3455 C.ar      1 <0>        -0.0817
      2 C2          0.9879    2.0619    0.4323 C.ar      1 <0>        -0.1112
      3 C3          2.2160    1.4253    0.4074 C.ar      1 <0>        -0.0215
      4 C4          2.2784    0.0478    0.2956 C.ar      1 <0>        -0.1128
      5 C5          1.1140   -0.6917    0.2088 C.ar      1 <0>        -0.0865
      6 C6         -0.1129   -0.0551    0.2337 C.ar      1 <0>        -0.1040
      7 C7         -1.3822   -0.8620    0.1396 C.3       1 <0>         0.1116
      8 O1         -1.7539   -1.0068   -1.2326 O.3       1 <0>        -0.3917
      9 C8         -2.9513   -1.7603   -1.4340 C.3       1 <0>         0.0346
     10 C9         -3.2513   -1.8504   -2.9316 C.3       1 <0>         0.0731
     11 C10        -3.4315   -0.4415   -3.5013 C.3       1 <0>        -0.1492
     12 C11        -4.5748    0.2613   -2.7626 C.3       1 <0>         0.1545
     13 N1         -5.7768   -0.5800   -2.8420 N.pl3     1 <0>        -0.6569
     14 C12        -5.6895   -1.9798   -2.4044 C.3       1 <0>         0.1510
     15 C13        -4.5336   -2.6575   -3.1471 C.3       1 <0>        -0.1536
     16 C14        -6.9680   -0.0638   -3.3193 C.ar      1 <0>         0.4619
     17 C15        -7.8917    0.5364   -2.4497 C.ar      1 <0>        -0.2038
     18 C16        -7.9439    0.7947   -1.0120 C.2       1 <0>        -0.1760
     19 C17        -9.1105    1.4151   -0.7710 C.2       1 <0>         0.0692
     20 N2         -9.8041    1.5715   -1.9432 N.pl3     1 <0>        -0.5702
     21 H1        -10.6741    1.9930   -2.0226 H         1 <0>         0.4281
     22 C18        -9.0888    1.0468   -2.9842 C.ar      1 <0>         0.3225
     23 N3         -9.2974    0.9390   -4.2957 N.ar      1 <0>        -0.5247
     24 C19        -8.4037    0.3678   -5.0733 C.ar      1 <0>         0.3279
     25 N4         -7.2644   -0.1187   -4.6143 N.ar      1 <0>        -0.5495
     26 N5         -2.1339   -2.5153   -3.6154 N.4       1 <0>        -0.6323
     27 Cl1         3.6782    2.3549    0.5158 Cl        1 <0>        -0.0541
     28 H2         -1.1347    1.8177    0.3694 H         1 <0>         0.1343
     29 H3          0.9386    3.1372    0.5192 H         1 <0>         0.1395
     30 H4          3.2369   -0.4496    0.2757 H         1 <0>         0.1388
     31 H5          1.1626   -1.7671    0.1212 H         1 <0>         0.1319
     32 H6         -1.2201   -1.8468    0.5779 H         1 <0>         0.0697
     33 H7         -2.1788   -0.3505    0.6798 H         1 <0>         0.0721
     34 H8         -2.8217   -2.7636   -1.0284 H         1 <0>         0.0779
     35 H9         -3.7805   -1.2674   -0.9264 H         1 <0>         0.1025
     36 H10        -2.5099    0.1252   -3.3685 H         1 <0>         0.1043
     37 H11        -3.6696   -0.5060   -4.5630 H         1 <0>         0.0951
     38 H12        -4.2996    0.4077   -1.7181 H         1 <0>         0.0722
     39 H13        -4.7727    1.2263   -3.2292 H         1 <0>         0.0897
     40 H14        -5.5052   -2.0162   -1.3307 H         1 <0>         0.0720
     41 H15        -6.6229   -2.4935   -2.6346 H         1 <0>         0.0921
     42 H16        -4.7614   -2.7011   -4.2121 H         1 <0>         0.1034
     43 H17        -4.3965   -3.6680   -2.7621 H         1 <0>         0.0987
     44 H18        -7.1897    0.5360   -0.2835 H         1 <0>         0.1533
     45 H19        -9.4513    1.7413    0.2005 H         1 <0>         0.1870
     46 H20        -8.6073    0.2980   -6.1317 H         1 <0>         0.2032
     47 H21        -2.0145   -3.4441   -3.2397 H         1 <0>         0.4322
     48 H22        -2.3316   -2.5748   -4.6030 H         1 <0>         0.4349
     49 H23        -1.2883   -1.9836   -3.4731 H         1 <0>         0.4404
@<TRIPOS>BOND
     1    1    6 ar
     2    1    2 ar
     3    1   28 1
     4    2    3 ar
     5    2   29 1
     6    3    4 ar
     7    3   27 1
     8    4    5 ar
     9    4   30 1
    10    5    6 ar
    11    5   31 1
    12    6    7 1
    13    7    8 1
    14    7   32 1
    15    7   33 1
    16    8    9 1
    17    9   10 1
    18    9   34 1
    19    9   35 1
    20   10   15 1
    21   10   11 1
    22   10   26 1
    23   11   12 1
    24   11   36 1
    25   11   37 1
    26   12   13 1
    27   12   38 1
    28   12   39 1
    29   13   14 1
    30   13   16 1
    31   14   15 1
    32   14   40 1
    33   14   41 1
    34   15   42 1
    35   15   43 1
    36   16   25 ar
    37   16   17 ar
    38   17   22 ar
    39   17   18 1
    40   18   19 2
    41   18   44 1
    42   19   20 1
    43   19   45 1
    44   20   21 1
    45   20   22 1
    46   22   23 ar
    47   23   24 ar
    48   24   25 ar
    49   24   46 1
    50   26   47 1
    51   26   48 1
    52   26   49 1
@<TRIPOS>MOLECULE
CHEMBL603882
   51    55     0     0     0
SMALL
USER_CHARGES

@<TRIPOS>ATOM
      1 C1          0.1121    1.4573   -0.4856 C.ar      1 <0>        -0.1018
      2 C2          1.3169    2.1577   -0.5073 C.ar      1 <0>        -0.1008
      3 C3          2.5085    1.5046   -0.4320 C.ar      1 <0>        -0.1101
      4 C4          2.5280    0.1030   -0.3302 C.ar      1 <0>        -0.0491
      5 C5          3.7387   -0.6062   -0.2498 C.ar      1 <0>        -0.0810
      6 C6          3.7188   -1.9634   -0.1518 C.ar      1 <0>        -0.1274
      7 C7          2.5139   -2.6637   -0.1298 C.ar      1 <0>        -0.1520
      8 C8          1.3224   -2.0106   -0.2057 C.ar      1 <0>        -0.0788
      9 C9          1.3029   -0.6091   -0.3078 C.ar      1 <0>        -0.0504
     10 C10         0.0922    0.1001   -0.3881 C.ar      1 <0>        -0.1080
     11 C11         5.0190   -2.7206   -0.0663 C.3       1 <0>        -0.0973
     12 C12         5.4252   -2.8724    1.4009 C.3       1 <0>         0.0706
     13 C13         5.5975   -1.4872    2.0283 C.3       1 <0>        -0.1561
     14 C14         6.6627   -0.7078    1.2507 C.3       1 <0>         0.1520
     15 N1          7.8946   -1.5072    1.2054 N.pl3     1 <0>        -0.6552
     16 C15         7.8238   -2.8864    0.7037 C.3       1 <0>         0.1519
     17 C16         6.7455   -3.6413    1.4875 C.3       1 <0>        -0.1516
     18 C17         9.0983   -0.9715    1.6265 C.ar      1 <0>         0.4624
     19 C18         9.9388   -0.2962    0.7282 C.ar      1 <0>        -0.2038
     20 C19         9.8823    0.0335   -0.6947 C.2       1 <0>        -0.1756
     21 C20        11.0080    0.7074   -0.9821 C.2       1 <0>         0.0686
     22 N2         11.7758    0.8319    0.1468 N.pl3     1 <0>        -0.5703
     23 H1         12.6348    1.2807    0.1885 H         1 <0>         0.4279
     24 C21        11.1525    0.2313    1.2057 C.ar      1 <0>         0.3223
     25 N3         11.4553    0.0675    2.4928 N.ar      1 <0>        -0.5252
     26 C22        10.6372   -0.5733    3.2991 C.ar      1 <0>         0.3275
     27 N4          9.4857   -1.0784    2.8940 N.ar      1 <0>        -0.5495
     28 N5          4.3808   -3.6104    2.1240 N.4       1 <0>        -0.6353
     29 H2         -0.8198    2.0002   -0.5426 H         1 <0>         0.1314
     30 H3          1.3047    3.2348   -0.5854 H         1 <0>         0.1311
     31 H4          3.4343    2.0604   -0.4506 H         1 <0>         0.1319
     32 H5          4.6800   -0.0769   -0.2661 H         1 <0>         0.1336
     33 H6          2.5261   -3.7408   -0.0518 H         1 <0>         0.1216
     34 H7          0.3966   -2.5664   -0.1878 H         1 <0>         0.1344
     35 H8         -0.8490   -0.4293   -0.3721 H         1 <0>         0.1330
     36 H9          4.8950   -3.7071   -0.5130 H         1 <0>         0.1000
     37 H10         5.7940   -2.1735   -0.6031 H         1 <0>         0.1222
     38 H11         4.6506   -0.9489    1.9873 H         1 <0>         0.0981
     39 H12         5.9109   -1.5945    3.0667 H         1 <0>         0.0961
     40 H13         6.3108   -0.5210    0.2361 H         1 <0>         0.0726
     41 H14         6.8603    0.2399    1.7514 H         1 <0>         0.0889
     42 H15         7.5666   -2.8772   -0.3555 H         1 <0>         0.0742
     43 H16         8.7875   -3.3761    0.8436 H         1 <0>         0.0901
     44 H17         7.0481   -3.7284    2.5310 H         1 <0>         0.0973
     45 H18         6.6157   -4.6363    1.0616 H         1 <0>         0.0974
     46 H19         9.0883   -0.2169   -1.3827 H         1 <0>         0.1539
     47 H20        11.2694    1.0927   -1.9566 H         1 <0>         0.1869
     48 H21        10.9162   -0.6870    4.3362 H         1 <0>         0.2029
     49 H22         4.2665   -4.5235    1.7103 H         1 <0>         0.4320
     50 H23         4.6485   -3.7106    3.0916 H         1 <0>         0.4339
     51 H24         3.5101   -3.1038    2.0667 H         1 <0>         0.4324
@<TRIPOS>BOND
     1    1   10 ar
     2    1    2 ar
     3    1   29 1
     4    2    3 ar
     5    2   30 1
     6    3    4 ar
     7    3   31 1
     8    4    9 ar
     9    4    5 ar
    10    5    6 ar
    11    5   32 1
    12    6    7 ar
    13    6   11 1
    14    7    8 ar
    15    7   33 1
    16    8    9 ar
    17    8   34 1
    18    9   10 ar
    19   10   35 1
    20   11   12 1
    21   11   36 1
    22   11   37 1
    23   12   17 1
    24   12   13 1
    25   12   28 1
    26   13   14 1
    27   13   38 1
    28   13   39 1
    29   14   15 1
    30   14   40 1
    31   14   41 1
    32   15   16 1
    33   15   18 1
    34   16   17 1
    35   16   42 1
    36   16   43 1
    37   17   44 1
    38   17   45 1
    39   18   27 ar
    40   18   19 ar
    41   19   24 ar
    42   19   20 1
    43   20   21 2
    44   20   46 1
    45   21   22 1
    46   21   47 1
    47   22   23 1
    48   22   24 1
    49   24   25 ar
    50   25   26 ar
    51   26   27 ar
    52   26   48 1
    53   28   49 1
    54   28   50 1
    55   28   51 1
@<TRIPOS>MOLECULE
CHEMBL598448
   51    55     0     0     0
SMALL
USER_CHARGES

@<TRIPOS>ATOM
      1 C1          5.9499   -4.8321   -0.5887 C.ar      1 <0>        -0.1198
      2 C2          4.9168   -4.0941   -0.0135 C.ar      1 <0>        -0.0807
      3 C3          4.9360   -2.7334   -0.0269 C.ar      1 <0>        -0.1705
      4 C4          6.0124   -2.0590   -0.6283 C.ar      1 <0>        -0.0541
      5 C5          7.0633   -2.8095   -1.2128 C.ar      1 <0>        -0.0525
      6 C6          7.0081   -4.2135   -1.1799 C.ar      1 <0>        -0.0814
      7 C7          8.1396   -2.1354   -1.8137 C.ar      1 <0>        -0.0809
      8 C8          8.1591   -0.7743   -1.8267 C.ar      1 <0>        -0.1189
      9 C9          7.1264   -0.0366   -1.2518 C.ar      1 <0>        -0.0797
     10 C10         6.0674   -0.6554   -0.6612 C.ar      1 <0>        -0.1293
     11 C11         4.9600    0.1606   -0.0458 C.3       1 <0>        -0.0969
     12 C12         5.2797    0.4259    1.4267 C.3       1 <0>         0.0704
     13 C13         4.1120    1.1727    2.0754 C.3       1 <0>        -0.1519
     14 C14         3.8747    2.4890    1.3284 C.3       1 <0>         0.1521
     15 N1          5.1326    3.2475    1.2958 N.pl3     1 <0>        -0.6547
     16 C15         6.3397    2.5918    0.7747 C.3       1 <0>         0.1528
     17 C16         6.5493    1.2744    1.5279 C.3       1 <0>        -0.1552
     18 C17         5.1794    4.5544    1.7466 C.ar      1 <0>         0.4626
     19 C18         4.8388    5.6202    0.8995 C.ar      1 <0>        -0.2041
     20 C19         4.3971    5.7395   -0.4887 C.2       1 <0>        -0.1754
     21 C20         4.2269    7.0496   -0.7308 C.2       1 <0>         0.0684
     22 N2          4.5259    7.7726    0.3949 N.pl3     1 <0>        -0.5703
     23 H1          4.4773    8.7389    0.4646 H         1 <0>         0.4278
     24 C21         4.9020    6.9314    1.4057 C.ar      1 <0>         0.3223
     25 N3          5.2836    7.1082    2.6699 N.ar      1 <0>        -0.5255
     26 C22         5.5944    6.0792    3.4279 C.ar      1 <0>         0.3278
     27 N4          5.5428    4.8321    2.9951 N.ar      1 <0>        -0.5498
     28 N5          5.4886   -0.8522    2.1201 N.4       1 <0>        -0.6367
     29 H2          5.9122   -5.9110   -0.5608 H         1 <0>         0.1333
     30 H3          4.0884   -4.6098    0.4493 H         1 <0>         0.1320
     31 H4          4.1281   -2.1747    0.4221 H         1 <0>         0.1208
     32 H5          7.8015   -4.7984   -1.6212 H         1 <0>         0.1368
     33 H6          8.9475   -2.6941   -2.2627 H         1 <0>         0.1366
     34 H7          8.9877   -0.2586   -2.2892 H         1 <0>         0.1340
     35 H8          7.1664    1.0424   -1.2753 H         1 <0>         0.1314
     36 H9          4.8707    1.1094   -0.5749 H         1 <0>         0.1246
     37 H10         4.0205   -0.3869   -0.1207 H         1 <0>         0.1009
     38 H11         3.2133    0.5580    2.0237 H         1 <0>         0.0969
     39 H12         4.3494    1.3839    3.1181 H         1 <0>         0.0979
     40 H13         3.5490    2.2775    0.3099 H         1 <0>         0.0743
     41 H14         3.1109    3.0699    1.8453 H         1 <0>         0.0904
     42 H15         6.2150    2.3887   -0.2889 H         1 <0>         0.0724
     43 H16         7.2024    3.2406    0.9263 H         1 <0>         0.0899
     44 H17         6.7639    1.4846    2.5757 H         1 <0>         0.0972
     45 H18         7.3855    0.7320    1.0866 H         1 <0>         0.0973
     46 H19         4.2384    4.9300   -1.1857 H         1 <0>         0.1539
     47 H20         3.9036    7.4704   -1.6714 H         1 <0>         0.1868
     48 H21         5.8998    6.2611    4.4477 H         1 <0>         0.2028
     49 H22         6.2581   -1.3451    1.6923 H         1 <0>         0.4327
     50 H23         5.6994   -0.6774    3.0912 H         1 <0>         0.4322
     51 H24         4.6517   -1.4119    2.0531 H         1 <0>         0.4290
@<TRIPOS>BOND
     1    1    6 ar
     2    1    2 ar
     3    1   29 1
     4    2    3 ar
     5    2   30 1
     6    3    4 ar
     7    3   31 1
     8    4   10 ar
     9    4    5 ar
    10    5    6 ar
    11    5    7 ar
    12    6   32 1
    13    7    8 ar
    14    7   33 1
    15    8    9 ar
    16    8   34 1
    17    9   10 ar
    18    9   35 1
    19   10   11 1
    20   11   12 1
    21   11   36 1
    22   11   37 1
    23   12   17 1
    24   12   13 1
    25   12   28 1
    26   13   14 1
    27   13   38 1
    28   13   39 1
    29   14   15 1
    30   14   40 1
    31   14   41 1
    32   15   16 1
    33   15   18 1
    34   16   17 1
    35   16   42 1
    36   16   43 1
    37   17   44 1
    38   17   45 1
    39   18   27 ar
    40   18   19 ar
    41   19   24 ar
    42   19   20 1
    43   20   21 2
    44   20   46 1
    45   21   22 1
    46   21   47 1
    47   22   23 1
    48   22   24 1
    49   24   25 ar
    50   25   26 ar
    51   26   27 ar
    52   26   48 1
    53   28   49 1
    54   28   50 1
    55   28   51 1
@<TRIPOS>MOLECULE
CHEMBL260184
   72    78     0     0     0
SMALL
USER_CHARGES

@<TRIPOS>ATOM
      1 C1         -0.0167    1.3791    0.0096 C.ar      1 <0>        -0.1097
      2 C2          1.1686    2.0924    0.0021 C.ar      1 <0>        -0.1120
      3 C3          2.3774    1.4269   -0.0129 C.ar      1 <0>        -0.1036
      4 C4          2.4026    0.0330   -0.0206 C.ar      1 <0>        -0.0491
      5 C5          1.2049   -0.6804   -0.0130 C.ar      1 <0>        -0.0994
      6 C6          0.0021   -0.0041    0.0020 C.ar      1 <0>        -0.1215
      7 C7          3.6978   -0.6877   -0.0373 C.ar      1 <0>        -0.0978
      8 C8          4.6763   -0.3476   -0.9576 C.ar      1 <0>        -0.0225
      9 C9          5.8866   -1.0617   -0.9306 C.ar      1 <0>        -0.1489
     10 C10         6.9249   -0.7709   -1.8343 C.ar      1 <0>        -0.0423
     11 C11         8.0755   -1.5042   -1.7522 C.ar      1 <0>        -0.1695
     12 C12         8.1910   -2.5057   -0.7916 C.ar      1 <0>         0.1691
     13 N1          7.2207   -2.7734    0.0487 N.ar      1 <0>        -0.4654
     14 C13         6.0680   -2.0947    0.0240 C.ar      1 <0>         0.3111
     15 N2          5.0919   -2.3827    0.8895 N.ar      1 <0>        -0.4469
     16 C14         3.9497   -1.7249    0.8891 C.ar      1 <0>         0.2182
     17 C15         2.9058   -2.0841    1.8768 C.ar      1 <0>        -0.0127
     18 C16         2.0780   -1.0970    2.4110 C.ar      1 <0>        -0.0803
     19 C17         1.1071   -1.4378    3.3303 C.ar      1 <0>        -0.1006
     20 C18         0.9539   -2.7557    3.7223 C.ar      1 <0>        -0.1488
     21 C19         1.7720   -3.7394    3.1960 C.ar      1 <0>        -0.0968
     22 C20         2.7430   -3.4117    2.2720 C.ar      1 <0>        -0.0725
     23 C21        -0.1081   -3.1211    4.7271 C.3       1 <0>         0.0430
     24 N3         -1.3578   -3.4409    4.0243 N.4       1 <0>        -0.3823
     25 C22        -1.8543   -2.2403    3.3413 C.3       1 <0>        -0.0132
     26 C23        -3.1119   -2.5872    2.5415 C.3       1 <0>        -0.1346
     27 C24        -4.1873   -3.1153    3.4953 C.3       1 <0>        -0.0140
     28 C25        -3.6322   -4.3226    4.2566 C.3       1 <0>        -0.1387
     29 C26        -2.3554   -3.9114    4.9928 C.3       1 <0>        -0.0057
     30 C27        -5.4009   -3.5323    2.7052 C.2       1 <0>         0.0684
     31 C28        -5.5908   -4.7747    2.0994 C.2       1 <0>        -0.2496
     32 C29        -6.8106   -4.7585    1.4841 C.2       1 <0>         0.1596
     33 N4         -7.3608   -3.5317    1.7061 N.pl3     1 <0>        -0.4624
     34 H1         -8.2259   -3.2271    1.3904 H         1 <0>         0.4443
     35 N5         -6.4555   -2.7914    2.4772 N.2       1 <0>        -0.2704
     36 C30        -7.4212   -5.8677    0.7179 C.2       1 <0>        -0.1672
     37 C31        -7.7769   -7.0707    1.3687 C.2       1 <0>         0.0006
     38 C32        -8.3374   -8.0765    0.6428 C.2       1 <0>        -0.2264
     39 C33        -8.5516   -7.9013   -0.7357 C.2       1 <0>         0.5133
     40 O1         -9.0540   -8.8007   -1.3901 O.2       1 <0>        -0.5315
     41 N6         -8.2069   -6.7486   -1.3384 N.am      1 <0>        -0.6013
     42 H2         -8.3609   -6.6416   -2.2901 H         1 <0>         0.4231
     43 C34        -7.6517   -5.7327   -0.6324 C.2       1 <0>         0.1716
     44 H3         -0.9603    1.9042    0.0260 H         1 <0>         0.1261
     45 H4          1.1478    3.1722    0.0077 H         1 <0>         0.1298
     46 H5          3.3021    1.9847   -0.0191 H         1 <0>         0.1274
     47 H6          1.2183   -1.7603   -0.0193 H         1 <0>         0.1205
     48 H7         -0.9264   -0.5557    0.0082 H         1 <0>         0.1226
     49 H8          4.5135    0.4431   -1.6750 H         1 <0>         0.1507
     50 H9          6.8159    0.0098   -2.5725 H         1 <0>         0.1480
     51 H10         8.8924   -1.3077   -2.4307 H         1 <0>         0.1509
     52 H11         9.1052   -3.0782   -0.7375 H         1 <0>         0.1738
     53 H12         2.1969   -0.0678    2.1059 H         1 <0>         0.1428
     54 H13         0.4657   -0.6742    3.7449 H         1 <0>         0.1349
     55 H14         1.6480   -4.7664    3.5061 H         1 <0>         0.1360
     56 H15         3.3781   -4.1811    1.8584 H         1 <0>         0.1425
     57 H16         0.2181   -3.9884    5.3013 H         1 <0>         0.1389
     58 H17        -0.2750   -2.2810    5.4012 H         1 <0>         0.1368
     59 H18        -2.0935   -1.4754    4.0800 H         1 <0>         0.1309
     60 H19        -1.0866   -1.8638    2.6652 H         1 <0>         0.1349
     61 H20        -3.4799   -1.6941    2.0366 H         1 <0>         0.1138
     62 H21        -2.8736   -3.3520    1.8023 H         1 <0>         0.0921
     63 H22        -4.4626   -2.3334    4.2030 H         1 <0>         0.1037
     64 H23        -4.3723   -4.6700    4.9775 H         1 <0>         0.1170
     65 H24        -3.4048   -5.1234    3.5529 H         1 <0>         0.0948
     66 H25        -1.9577   -4.7687    5.5360 H         1 <0>         0.1348
     67 H26        -2.5839   -3.1108    5.6963 H         1 <0>         0.1315
     68 H27        -4.8969   -5.6022    2.1142 H         1 <0>         0.1504
     69 H28        -7.6058   -7.1906    2.4283 H         1 <0>         0.1408
     70 H29        -8.6155   -9.0032    1.1225 H         1 <0>         0.1580
     71 H30        -7.3853   -4.8137   -1.1332 H         1 <0>         0.1683
     72 H31        -1.1838   -4.1650    3.3435 H         1 <0>         0.4226
@<TRIPOS>BOND
     1    1    6 ar
     2    1    2 ar
     3    1   44 1
     4    2    3 ar
     5    2   45 1
     6    3    4 ar
     7    3   46 1
     8    4    5 ar
     9    4    7 1
    10    5    6 ar
    11    5   47 1
    12    6   48 1
    13    7   16 ar
    14    7    8 ar
    15    8    9 ar
    16    8   49 1
    17    9   14 ar
    18    9   10 ar
    19   10   11 ar
    20   10   50 1
    21   11   12 ar
    22   11   51 1
    23   12   13 ar
    24   12   52 1
    25   13   14 ar
    26   14   15 ar
    27   15   16 ar
    28   16   17 1
    29   17   22 ar
    30   17   18 ar
    31   18   19 ar
    32   18   53 1
    33   19   20 ar
    34   19   54 1
    35   20   21 ar
    36   20   23 1
    37   21   22 ar
    38   21   55 1
    39   22   56 1
    40   23   24 1
    41   23   57 1
    42   23   58 1
    43   24   29 1
    44   24   25 1
    45   24   72 1
    46   25   26 1
    47   25   59 1
    48   25   60 1
    49   26   27 1
    50   26   61 1
    51   26   62 1
    52   27   28 1
    53   27   30 1
    54   27   63 1
    55   28   29 1
    56   28   64 1
    57   28   65 1
    58   29   66 1
    59   29   67 1
    60   30   35 2
    61   30   31 1
    62   31   32 2
    63   31   68 1
    64   32   33 1
    65   32   36 1
    66   33   34 1
    67   33   35 1
    68   36   43 2
    69   36   37 1
    70   37   38 2
    71   37   69 1
    72   38   39 1
    73   38   70 1
    74   39   40 2
    75   39   41 am
    76   41   42 1
    77   41   43 1
    78   43   71 1
@<TRIPOS>MOLECULE
CHEMBL260184
   72    78     0     0     0
SMALL
USER_CHARGES

@<TRIPOS>ATOM
      1 C1         -0.0167    1.3791    0.0096 C.ar      1 <0>        -0.1096
      2 C2          1.1686    2.0924    0.0021 C.ar      1 <0>        -0.1114
      3 C3          2.3774    1.4269   -0.0129 C.ar      1 <0>        -0.1031
      4 C4          2.4026    0.0330   -0.0206 C.ar      1 <0>        -0.0486
      5 C5          1.2049   -0.6804   -0.0130 C.ar      1 <0>        -0.1001
      6 C6          0.0021   -0.0041    0.0020 C.ar      1 <0>        -0.1222
      7 C7          3.6978   -0.6877   -0.0373 C.ar      1 <0>        -0.0985
      8 C8          4.6763   -0.3476   -0.9576 C.ar      1 <0>        -0.0218
      9 C9          5.8866   -1.0617   -0.9306 C.ar      1 <0>        -0.1486
     10 C10         6.9249   -0.7709   -1.8343 C.ar      1 <0>        -0.0423
     11 C11         8.0755   -1.5042   -1.7522 C.ar      1 <0>        -0.1690
     12 C12         8.1910   -2.5057   -0.7916 C.ar      1 <0>         0.1696
     13 N1          7.2207   -2.7734    0.0487 N.ar      1 <0>        -0.4655
     14 C13         6.0680   -2.0947    0.0240 C.ar      1 <0>         0.3110
     15 N2          5.0919   -2.3827    0.8895 N.ar      1 <0>        -0.4465
     16 C14         3.9497   -1.7249    0.8891 C.ar      1 <0>         0.2170
     17 C15         2.9058   -2.0841    1.8768 C.ar      1 <0>        -0.0110
     18 C16         2.0780   -1.0970    2.4110 C.ar      1 <0>        -0.0800
     19 C17         1.1071   -1.4378    3.3303 C.ar      1 <0>        -0.1008
     20 C18         0.9539   -2.7557    3.7223 C.ar      1 <0>        -0.1509
     21 C19         1.7720   -3.7394    3.1960 C.ar      1 <0>        -0.0968
     22 C20         2.7430   -3.4117    2.2720 C.ar      1 <0>        -0.0726
     23 C21        -0.1081   -3.1211    4.7271 C.3       1 <0>         0.0432
     24 N3         -1.3578   -3.4409    4.0243 N.4       1 <0>        -0.3833
     25 C22        -1.8543   -2.2403    3.3413 C.3       1 <0>        -0.0124
     26 C23        -3.1119   -2.5872    2.5415 C.3       1 <0>        -0.1454
     27 C24        -4.1873   -3.1153    3.4953 C.3       1 <0>        -0.0314
     28 C25        -3.6322   -4.3226    4.2566 C.3       1 <0>        -0.1404
     29 C26        -2.3554   -3.9114    4.9928 C.3       1 <0>        -0.0062
     30 C27        -5.4009   -3.5323    2.7052 C.2       1 <0>         0.0789
     31 C28        -6.6867   -3.4132    3.1023 C.2       1 <0>        -0.2384
     32 C29        -7.5048   -3.9196    2.0738 C.2       1 <0>         0.1493
     33 N4         -6.7222   -4.3261    1.0968 N.2       1 <0>        -0.2806
     34 H1         -4.6076   -4.2835    0.9423 H         1 <0>         0.4364
     35 N5         -5.3948   -4.0852    1.4733 N.pl3     1 <0>        -0.4696
     36 C30        -8.9878   -3.9839    2.0892 C.2       1 <0>        -0.1429
     37 C31        -9.7066   -3.5051    3.2056 C.2       1 <0>        -0.0001
     38 C32       -11.0667   -3.5739    3.1984 C.2       1 <0>        -0.2309
     39 C33       -11.7251   -4.1191    2.0821 C.2       1 <0>         0.5134
     40 O1        -12.9438   -4.1842    2.0672 O.2       1 <0>        -0.5362
     41 N6        -11.0170   -4.5690    1.0295 N.am      1 <0>        -0.6033
     42 H2        -11.4818   -4.9432    0.2648 H         1 <0>         0.4221
     43 C34        -9.6624   -4.5011    1.0218 C.2       1 <0>         0.1778
     44 H3         -0.9603    1.9042    0.0260 H         1 <0>         0.1264
     45 H4          1.1478    3.1722    0.0077 H         1 <0>         0.1304
     46 H5          3.3021    1.9847   -0.0191 H         1 <0>         0.1279
     47 H6          1.2183   -1.7603   -0.0193 H         1 <0>         0.1199
     48 H7         -0.9264   -0.5557    0.0082 H         1 <0>         0.1214
     49 H8          4.5135    0.4431   -1.6750 H         1 <0>         0.1510
     50 H9          6.8159    0.0098   -2.5725 H         1 <0>         0.1483
     51 H10         8.8924   -1.3077   -2.4307 H         1 <0>         0.1513
     52 H11         9.1052   -3.0782   -0.7375 H         1 <0>         0.1741
     53 H12         2.1969   -0.0678    2.1059 H         1 <0>         0.1433
     54 H13         0.4657   -0.6742    3.7449 H         1 <0>         0.1349
     55 H14         1.6480   -4.7664    3.5061 H         1 <0>         0.1357
     56 H15         3.3781   -4.1811    1.8584 H         1 <0>         0.1429
     57 H16         0.2181   -3.9884    5.3013 H         1 <0>         0.1395
     58 H17        -0.2750   -2.2810    5.4012 H         1 <0>         0.1379
     59 H18        -2.0935   -1.4754    4.0800 H         1 <0>         0.1342
     60 H19        -1.0866   -1.8638    2.6652 H         1 <0>         0.1369
     61 H20        -3.4799   -1.6941    2.0366 H         1 <0>         0.1192
     62 H21        -2.8736   -3.3520    1.8023 H         1 <0>         0.0843
     63 H22        -4.4626   -2.3334    4.2030 H         1 <0>         0.1173
     64 H23        -4.3723   -4.6700    4.9775 H         1 <0>         0.1216
     65 H24        -3.4048   -5.1234    3.5529 H         1 <0>         0.0886
     66 H25        -1.9577   -4.7687    5.5360 H         1 <0>         0.1358
     67 H26        -2.5839   -3.1108    5.6963 H         1 <0>         0.1343
     68 H27        -7.0268   -3.0030    4.0417 H         1 <0>         0.1538
     69 H28        -9.1845   -3.0897    4.0549 H         1 <0>         0.1399
     70 H29       -11.6347   -3.2131    4.0432 H         1 <0>         0.1570
     71 H30        -9.1130   -4.8634    0.1655 H         1 <0>         0.1718
     72 H31        -1.1838   -4.1650    3.3435 H         1 <0>         0.4218
@<TRIPOS>BOND
     1    1    6 ar
     2    1    2 ar
     3    1   44 1
     4    2    3 ar
     5    2   45 1
     6    3    4 ar
     7    3   46 1
     8    4    5 ar
     9    4    7 1
    10    5    6 ar
    11    5   47 1
    12    6   48 1
    13    7   16 ar
    14    7    8 ar
    15    8    9 ar
    16    8   49 1
    17    9   14 ar
    18    9   10 ar
    19   10   11 ar
    20   10   50 1
    21   11   12 ar
    22   11   51 1
    23   12   13 ar
    24   12   52 1
    25   13   14 ar
    26   14   15 ar
    27   15   16 ar
    28   16   17 1
    29   17   22 ar
    30   17   18 ar
    31   18   19 ar
    32   18   53 1
    33   19   20 ar
    34   19   54 1
    35   20   21 ar
    36   20   23 1
    37   21   22 ar
    38   21   55 1
    39   22   56 1
    40   23   24 1
    41   23   57 1
    42   23   58 1
    43   24   29 1
    44   24   25 1
    45   24   72 1
    46   25   26 1
    47   25   59 1
    48   25   60 1
    49   26   27 1
    50   26   61 1
    51   26   62 1
    52   27   28 1
    53   27   63 1
    54   27   30 1
    55   28   29 1
    56   28   64 1
    57   28   65 1
    58   29   66 1
    59   29   67 1
    60   30   31 2
    61   30   35 1
    62   31   32 1
    63   31   68 1
    64   32   33 2
    65   32   36 1
    66   33   35 1
    67   34   35 1
    68   36   43 2
    69   36   37 1
    70   37   38 2
    71   37   69 1
    72   38   39 1
    73   38   70 1
    74   39   40 2
    75   39   41 am
    76   41   42 1
    77   41   43 1
    78   43   71 1
@<TRIPOS>MOLECULE
CHEMBL407733
   71    77     0     0     0
SMALL
USER_CHARGES

@<TRIPOS>ATOM
      1 C1         -0.0167    1.3791    0.0096 C.ar      1 <0>        -0.1096
      2 C2          1.1686    2.0924    0.0021 C.ar      1 <0>        -0.1121
      3 C3          2.3774    1.4269   -0.0129 C.ar      1 <0>        -0.1036
      4 C4          2.4026    0.0330   -0.0206 C.ar      1 <0>        -0.0493
      5 C5          1.2049   -0.6804   -0.0130 C.ar      1 <0>        -0.0993
      6 C6          0.0021   -0.0041    0.0020 C.ar      1 <0>        -0.1215
      7 C7          3.6978   -0.6877   -0.0373 C.ar      1 <0>        -0.0976
      8 C8          4.6763   -0.3476   -0.9576 C.ar      1 <0>        -0.0226
      9 C9          5.8866   -1.0617   -0.9306 C.ar      1 <0>        -0.1488
     10 C10         6.9249   -0.7709   -1.8343 C.ar      1 <0>        -0.0423
     11 C11         8.0755   -1.5042   -1.7522 C.ar      1 <0>        -0.1696
     12 C12         8.1910   -2.5057   -0.7916 C.ar      1 <0>         0.1690
     13 N1          7.2207   -2.7734    0.0487 N.ar      1 <0>        -0.4654
     14 C13         6.0680   -2.0947    0.0240 C.ar      1 <0>         0.3110
     15 N2          5.0919   -2.3827    0.8895 N.ar      1 <0>        -0.4468
     16 C14         3.9497   -1.7249    0.8891 C.ar      1 <0>         0.2183
     17 C15         2.9058   -2.0841    1.8768 C.ar      1 <0>        -0.0128
     18 C16         2.0780   -1.0970    2.4110 C.ar      1 <0>        -0.0803
     19 C17         1.1071   -1.4378    3.3303 C.ar      1 <0>        -0.1007
     20 C18         0.9539   -2.7557    3.7223 C.ar      1 <0>        -0.1489
     21 C19         1.7720   -3.7394    3.1960 C.ar      1 <0>        -0.0967
     22 C20         2.7430   -3.4117    2.2720 C.ar      1 <0>        -0.0725
     23 C21        -0.1081   -3.1211    4.7271 C.3       1 <0>         0.0430
     24 N3         -1.3578   -3.4409    4.0243 N.4       1 <0>        -0.3824
     25 C22        -1.8543   -2.2403    3.3413 C.3       1 <0>        -0.0128
     26 C23        -3.1119   -2.5872    2.5415 C.3       1 <0>        -0.1351
     27 C24        -4.1873   -3.1153    3.4953 C.3       1 <0>        -0.0137
     28 C25        -3.6322   -4.3226    4.2566 C.3       1 <0>        -0.1392
     29 C26        -2.3554   -3.9114    4.9928 C.3       1 <0>        -0.0054
     30 C27        -5.4009   -3.5323    2.7052 C.2       1 <0>         0.0706
     31 C28        -5.5907   -4.7745    2.0995 C.2       1 <0>        -0.2525
     32 C29        -6.8102   -4.7583    1.4837 C.2       1 <0>         0.1491
     33 N4         -7.3605   -3.5313    1.7055 N.pl3     1 <0>        -0.4639
     34 H1         -8.2254   -3.2267    1.3892 H         1 <0>         0.4438
     35 N5         -6.4556   -2.7913    2.4772 N.2       1 <0>        -0.2669
     36 C30        -7.4206   -5.8677    0.7179 C.ar      1 <0>        -0.1007
     37 C31        -8.6811   -5.7167    0.1294 C.ar      1 <0>        -0.0629
     38 C32        -9.2075   -6.7840   -0.5767 C.ar      1 <0>        -0.1625
     39 C33        -8.4779   -7.9550   -0.6773 C.ar      1 <0>         0.1168
     40 N6         -7.2916   -8.0685   -0.1119 N.ar      1 <0>        -0.4767
     41 C34        -6.7466   -7.0791    0.5656 C.ar      1 <0>         0.1341
     42 H2         -0.9603    1.9042    0.0260 H         1 <0>         0.1261
     43 H3          1.1478    3.1722    0.0077 H         1 <0>         0.1298
     44 H4          3.3021    1.9847   -0.0191 H         1 <0>         0.1274
     45 H5          1.2183   -1.7603   -0.0193 H         1 <0>         0.1206
     46 H6         -0.9264   -0.5557    0.0082 H         1 <0>         0.1227
     47 H7          4.5135    0.4431   -1.6750 H         1 <0>         0.1507
     48 H8          6.8159    0.0098   -2.5725 H         1 <0>         0.1479
     49 H9          8.8924   -1.3077   -2.4307 H         1 <0>         0.1508
     50 H10         9.1052   -3.0782   -0.7375 H         1 <0>         0.1738
     51 H11         2.1969   -0.0678    2.1059 H         1 <0>         0.1428
     52 H12         0.4657   -0.6742    3.7449 H         1 <0>         0.1348
     53 H13         1.6480   -4.7664    3.5061 H         1 <0>         0.1361
     54 H14         3.3781   -4.1811    1.8584 H         1 <0>         0.1426
     55 H15         0.2181   -3.9884    5.3013 H         1 <0>         0.1390
     56 H16        -0.2750   -2.2810    5.4012 H         1 <0>         0.1368
     57 H17        -2.0935   -1.4754    4.0800 H         1 <0>         0.1310
     58 H18        -1.0866   -1.8638    2.6652 H         1 <0>         0.1352
     59 H19        -3.4799   -1.6941    2.0366 H         1 <0>         0.1141
     60 H20        -2.8736   -3.3520    1.8023 H         1 <0>         0.0925
     61 H21        -4.4626   -2.3334    4.2030 H         1 <0>         0.1044
     62 H22        -4.3723   -4.6700    4.9775 H         1 <0>         0.1173
     63 H23        -3.4048   -5.1234    3.5529 H         1 <0>         0.0949
     64 H24        -1.9577   -4.7687    5.5360 H         1 <0>         0.1352
     65 H25        -2.5839   -3.1108    5.6963 H         1 <0>         0.1316
     66 H26        -4.8967   -5.6019    2.1144 H         1 <0>         0.1523
     67 H27        -9.2292   -4.7910    0.2241 H         1 <0>         0.1329
     68 H28       -10.1779   -6.7037   -1.0439 H         1 <0>         0.1462
     69 H29        -8.8863   -8.7898   -1.2275 H         1 <0>         0.1660
     70 H30        -5.7711   -7.2087    1.0108 H         1 <0>         0.1609
     71 H31        -1.1838   -4.1650    3.3435 H         1 <0>         0.4228
@<TRIPOS>BOND
     1    1    6 ar
     2    1    2 ar
     3    1   42 1
     4    2    3 ar
     5    2   43 1
     6    3    4 ar
     7    3   44 1
     8    4    5 ar
     9    4    7 1
    10    5    6 ar
    11    5   45 1
    12    6   46 1
    13    7   16 ar
    14    7    8 ar
    15    8    9 ar
    16    8   47 1
    17    9   14 ar
    18    9   10 ar
    19   10   11 ar
    20   10   48 1
    21   11   12 ar
    22   11   49 1
    23   12   13 ar
    24   12   50 1
    25   13   14 ar
    26   14   15 ar
    27   15   16 ar
    28   16   17 1
    29   17   22 ar
    30   17   18 ar
    31   18   19 ar
    32   18   51 1
    33   19   20 ar
    34   19   52 1
    35   20   21 ar
    36   20   23 1
    37   21   22 ar
    38   21   53 1
    39   22   54 1
    40   23   24 1
    41   23   55 1
    42   23   56 1
    43   24   29 1
    44   24   25 1
    45   24   71 1
    46   25   26 1
    47   25   57 1
    48   25   58 1
    49   26   27 1
    50   26   59 1
    51   26   60 1
    52   27   28 1
    53   27   30 1
    54   27   61 1
    55   28   29 1
    56   28   62 1
    57   28   63 1
    58   29   64 1
    59   29   65 1
    60   30   35 2
    61   30   31 1
    62   31   32 2
    63   31   66 1
    64   32   33 1
    65   32   36 1
    66   33   34 1
    67   33   35 1
    68   36   41 ar
    69   36   37 ar
    70   37   38 ar
    71   37   67 1
    72   38   39 ar
    73   38   68 1
    74   39   40 ar
    75   39   69 1
    76   40   41 ar
    77   41   70 1
@<TRIPOS>MOLECULE
CHEMBL407733
   71    77     0     0     0
SMALL
USER_CHARGES

@<TRIPOS>ATOM
      1 C1         -0.0167    1.3791    0.0096 C.ar      1 <0>        -0.1096
      2 C2          1.1686    2.0924    0.0021 C.ar      1 <0>        -0.1114
      3 C3          2.3774    1.4269   -0.0129 C.ar      1 <0>        -0.1031
      4 C4          2.4026    0.0330   -0.0206 C.ar      1 <0>        -0.0487
      5 C5          1.2049   -0.6804   -0.0130 C.ar      1 <0>        -0.1000
      6 C6          0.0021   -0.0041    0.0020 C.ar      1 <0>        -0.1222
      7 C7          3.6978   -0.6877   -0.0373 C.ar      1 <0>        -0.0984
      8 C8          4.6763   -0.3476   -0.9576 C.ar      1 <0>        -0.0219
      9 C9          5.8866   -1.0617   -0.9306 C.ar      1 <0>        -0.1485
     10 C10         6.9249   -0.7709   -1.8343 C.ar      1 <0>        -0.0423
     11 C11         8.0755   -1.5042   -1.7522 C.ar      1 <0>        -0.1690
     12 C12         8.1910   -2.5057   -0.7916 C.ar      1 <0>         0.1695
     13 N1          7.2207   -2.7734    0.0487 N.ar      1 <0>        -0.4655
     14 C13         6.0680   -2.0947    0.0240 C.ar      1 <0>         0.3110
     15 N2          5.0919   -2.3827    0.8895 N.ar      1 <0>        -0.4465
     16 C14         3.9497   -1.7249    0.8891 C.ar      1 <0>         0.2171
     17 C15         2.9058   -2.0841    1.8768 C.ar      1 <0>        -0.0111
     18 C16         2.0780   -1.0970    2.4110 C.ar      1 <0>        -0.0800
     19 C17         1.1071   -1.4378    3.3303 C.ar      1 <0>        -0.1008
     20 C18         0.9539   -2.7557    3.7223 C.ar      1 <0>        -0.1508
     21 C19         1.7720   -3.7394    3.1960 C.ar      1 <0>        -0.0968
     22 C20         2.7430   -3.4117    2.2720 C.ar      1 <0>        -0.0726
     23 C21        -0.1081   -3.1211    4.7271 C.3       1 <0>         0.0433
     24 N3         -1.3578   -3.4409    4.0243 N.4       1 <0>        -0.3833
     25 C22        -1.8543   -2.2403    3.3413 C.3       1 <0>        -0.0121
     26 C23        -3.1119   -2.5872    2.5415 C.3       1 <0>        -0.1456
     27 C24        -4.1873   -3.1153    3.4953 C.3       1 <0>        -0.0311
     28 C25        -3.6322   -4.3226    4.2566 C.3       1 <0>        -0.1406
     29 C26        -2.3554   -3.9114    4.9928 C.3       1 <0>        -0.0059
     30 C27        -5.4009   -3.5323    2.7052 C.2       1 <0>         0.0771
     31 C28        -6.6866   -3.4132    3.1023 C.2       1 <0>        -0.2354
     32 C29        -7.5048   -3.9196    2.0738 C.2       1 <0>         0.1300
     33 N4         -6.7222   -4.3262    1.0967 N.2       1 <0>        -0.2657
     34 H1         -4.6075   -4.2830    0.9420 H         1 <0>         0.4370
     35 N5         -5.3947   -4.0852    1.4732 N.pl3     1 <0>        -0.4683
     36 C30        -8.9875   -3.9842    2.0893 C.ar      1 <0>        -0.0831
     37 C31        -9.6819   -4.6107    1.0509 C.ar      1 <0>        -0.0460
     38 C32       -11.0643   -4.6443    1.1120 C.ar      1 <0>        -0.1705
     39 C33       -11.7082   -4.0621    2.1887 C.ar      1 <0>         0.1131
     40 N6        -11.0256   -3.4774    3.1539 N.ar      1 <0>        -0.4812
     41 C34        -9.7091   -3.4263    3.1420 C.ar      1 <0>         0.1283
     42 H2         -0.9603    1.9042    0.0260 H         1 <0>         0.1263
     43 H3          1.1478    3.1722    0.0077 H         1 <0>         0.1304
     44 H4          3.3021    1.9847   -0.0191 H         1 <0>         0.1279
     45 H5          1.2183   -1.7603   -0.0193 H         1 <0>         0.1199
     46 H6         -0.9264   -0.5557    0.0082 H         1 <0>         0.1213
     47 H7          4.5135    0.4431   -1.6750 H         1 <0>         0.1510
     48 H8          6.8159    0.0098   -2.5725 H         1 <0>         0.1483
     49 H9          8.8924   -1.3077   -2.4307 H         1 <0>         0.1513
     50 H10         9.1052   -3.0782   -0.7375 H         1 <0>         0.1741
     51 H11         2.1969   -0.0678    2.1059 H         1 <0>         0.1434
     52 H12         0.4657   -0.6742    3.7449 H         1 <0>         0.1350
     53 H13         1.6480   -4.7664    3.5061 H         1 <0>         0.1356
     54 H14         3.3781   -4.1811    1.8584 H         1 <0>         0.1429
     55 H15         0.2181   -3.9884    5.3013 H         1 <0>         0.1396
     56 H16        -0.2750   -2.2810    5.4012 H         1 <0>         0.1380
     57 H17        -2.0935   -1.4754    4.0800 H         1 <0>         0.1344
     58 H18        -1.0866   -1.8638    2.6652 H         1 <0>         0.1371
     59 H19        -3.4799   -1.6941    2.0366 H         1 <0>         0.1192
     60 H20        -2.8736   -3.3520    1.8023 H         1 <0>         0.0842
     61 H21        -4.4626   -2.3334    4.2030 H         1 <0>         0.1179
     62 H22        -4.3723   -4.6700    4.9775 H         1 <0>         0.1217
     63 H23        -3.4048   -5.1234    3.5529 H         1 <0>         0.0885
     64 H24        -1.9577   -4.7687    5.5360 H         1 <0>         0.1360
     65 H25        -2.5839   -3.1108    5.6963 H         1 <0>         0.1345
     66 H26        -7.0266   -3.0032    4.0418 H         1 <0>         0.1558
     67 H27        -9.1532   -5.0571    0.2216 H         1 <0>         0.1406
     68 H28       -11.6339   -5.1197    0.3272 H         1 <0>         0.1431
     69 H29       -12.7867   -4.0864    2.2398 H         1 <0>         0.1630
     70 H30        -9.1850   -2.9433    3.9533 H         1 <0>         0.1587
     71 H31        -1.1838   -4.1650    3.3435 H         1 <0>         0.4218
@<TRIPOS>BOND
     1    1    6 ar
     2    1    2 ar
     3    1   42 1
     4    2    3 ar
     5    2   43 1
     6    3    4 ar
     7    3   44 1
     8    4    5 ar
     9    4    7 1
    10    5    6 ar
    11    5   45 1
    12    6   46 1
    13    7   16 ar
    14    7    8 ar
    15    8    9 ar
    16    8   47 1
    17    9   14 ar
    18    9   10 ar
    19   10   11 ar
    20   10   48 1
    21   11   12 ar
    22   11   49 1
    23   12   13 ar
    24   12   50 1
    25   13   14 ar
    26   14   15 ar
    27   15   16 ar
    28   16   17 1
    29   17   22 ar
    30   17   18 ar
    31   18   19 ar
    32   18   51 1
    33   19   20 ar
    34   19   52 1
    35   20   21 ar
    36   20   23 1
    37   21   22 ar
    38   21   53 1
    39   22   54 1
    40   23   24 1
    41   23   55 1
    42   23   56 1
    43   24   29 1
    44   24   25 1
    45   24   71 1
    46   25   26 1
    47   25   57 1
    48   25   58 1
    49   26   27 1
    50   26   59 1
    51   26   60 1
    52   27   28 1
    53   27   61 1
    54   27   30 1
    55   28   29 1
    56   28   62 1
    57   28   63 1
    58   29   64 1
    59   29   65 1
    60   30   31 2
    61   30   35 1
    62   31   32 1
    63   31   66 1
    64   32   33 2
    65   32   36 1
    66   33   35 1
    67   34   35 1
    68   36   41 ar
    69   36   37 ar
    70   37   38 ar
    71   37   67 1
    72   38   39 ar
    73   38   68 1
    74   39   40 ar
    75   39   69 1
    76   40   41 ar
    77   41   70 1
@<TRIPOS>MOLECULE
CHEMBL228867
   64    67     0     0     0
SMALL
USER_CHARGES

@<TRIPOS>ATOM
      1 C1         -0.5845    1.4328    0.0605 C.3       1 <0>        -0.1287
      2 C2         -0.4961   -0.0716    0.0640 C.2       1 <0>         0.0763
      3 C3         -0.1789   -0.7423    1.2296 C.2       1 <0>        -0.1564
      4 C4         -0.0146   -0.1663    2.5829 C.ar      1 <0>        -0.0873
      5 C5         -0.1159    1.1263    3.0867 C.ar      1 <0>        -0.0938
      6 C6          0.0999    1.3554    4.4363 C.ar      1 <0>         0.1495
      7 C7          0.4160    0.2949    5.2787 C.ar      1 <0>        -0.0779
      8 C8          0.5174   -0.9883    4.7831 C.ar      1 <0>        -0.1124
      9 C9          0.3039   -1.2353    3.4313 C.ar      1 <0>         0.1285
     10 N1          0.3432   -2.4110    2.6882 N.am      1 <0>        -0.6526
     11 C10         0.0619   -2.1815    1.3944 C.2       1 <0>         0.5581
     12 O1          0.0176   -3.0202    0.5118 O.2       1 <0>        -0.5028
     13 N2          0.0002    2.6549    4.9518 N.am      1 <0>        -0.6846
     14 C11        -0.4512    2.8492    6.2068 C.2       1 <0>         0.7058
     15 O2         -0.8606    1.9077    6.8582 O.2       1 <0>        -0.5740
     16 N3         -0.4489    4.0872    6.7396 N.am      1 <0>        -0.8592
     17 C12        -0.7373   -0.7949   -1.1223 C.2       1 <0>         0.0231
     18 C13         0.0304   -0.7582   -2.2762 C.2       1 <0>        -0.1345
     19 C14        -0.5689   -1.6226   -3.1942 C.2       1 <0>        -0.2041
     20 C15        -1.6656   -2.1623   -2.6063 C.2       1 <0>         0.0406
     21 N4         -1.7763   -1.6727   -1.3458 N.pl3     1 <0>        -0.5193
     22 H1         -2.4716   -1.9006   -0.7091 H         1 <0>         0.4197
     23 C16        -0.0831   -1.9057   -4.5924 C.3       1 <0>         0.1960
     24 N5          0.8443   -3.0395   -4.5669 N.am      1 <0>        -0.7124
     25 C17         1.4088   -3.4743   -5.7110 C.2       1 <0>         0.5161
     26 O3          1.1490   -2.9269   -6.7616 O.2       1 <0>        -0.5368
     27 C18         2.3628   -4.6406   -5.6847 C.3       1 <0>        -0.1745
     28 C19         2.8560   -4.9281   -7.1042 C.3       1 <0>         0.0069
     29 N6          3.7859   -6.0650   -7.0787 N.4       1 <0>        -0.3831
     30 C20         4.9816   -5.6999   -6.3096 C.3       1 <0>        -0.0141
     31 C21         5.9174   -6.9066   -6.2111 C.3       1 <0>        -0.1455
     32 C22         6.3285   -7.3432   -7.6203 C.3       1 <0>        -0.1399
     33 C23         5.0697   -7.6501   -8.4365 C.3       1 <0>        -0.1460
     34 C24         4.1653   -6.4158   -8.4525 C.3       1 <0>        -0.0060
     35 H2          0.3476    1.8524    0.4390 H         1 <0>         0.0881
     36 H3         -0.7544    1.7844   -0.9571 H         1 <0>         0.0816
     37 H4         -1.4105    1.7498    0.6971 H         1 <0>         0.0892
     38 H5         -0.3612    1.9473    2.4293 H         1 <0>         0.1358
     39 H6          0.5838    0.4777    6.3298 H         1 <0>         0.1480
     40 H7          0.7635   -1.8038    5.4471 H         1 <0>         0.1346
     41 H8          0.5435   -3.2852    3.0577 H         1 <0>         0.4186
     42 H9          0.2561    3.4144    4.4054 H         1 <0>         0.4091
     43 H10        -0.1223    4.8383    6.2200 H         1 <0>         0.4003
     44 H11        -0.7738    4.2271    7.6428 H         1 <0>         0.4215
     45 H12         0.9231   -0.1715   -2.4350 H         1 <0>         0.1408
     46 H13        -2.3394   -2.8703   -3.0658 H         1 <0>         0.1675
     47 H14        -0.9333   -2.1460   -5.2308 H         1 <0>         0.0770
     48 H15         0.4285   -1.0266   -4.9843 H         1 <0>         0.0790
     49 H16         1.0521   -3.4773   -3.7267 H         1 <0>         0.4067
     50 H17         3.2130   -4.4003   -5.0464 H         1 <0>         0.1154
     51 H18         1.8512   -5.5197   -5.2929 H         1 <0>         0.1161
     52 H19         2.0058   -5.1684   -7.7426 H         1 <0>         0.1400
     53 H20         3.3676   -4.0490   -7.4961 H         1 <0>         0.1383
     54 H21         5.4979   -4.8801   -6.8089 H         1 <0>         0.1301
     55 H22         4.6872   -5.3864   -5.3080 H         1 <0>         0.1297
     56 H23         6.8054   -6.6330   -5.6413 H         1 <0>         0.1118
     57 H24         5.4021   -7.7271   -5.7117 H         1 <0>         0.0875
     58 H25         6.8885   -6.5413   -8.1014 H         1 <0>         0.0821
     59 H26         6.9497   -8.2367   -7.5583 H         1 <0>         0.0940
     60 H27         5.3517   -7.9079   -9.4574 H         1 <0>         0.1126
     61 H28         4.5368   -8.4860   -7.9833 H         1 <0>         0.0874
     62 H29         3.2682   -6.6309   -9.0331 H         1 <0>         0.1315
     63 H30         4.6990   -5.5807   -8.9061 H         1 <0>         0.1296
     64 H31         3.3364   -6.8561   -6.6425 H         1 <0>         0.4214
@<TRIPOS>BOND
     1    1    2 1
     2    1   35 1
     3    1   36 1
     4    1   37 1
     5    2    3 2
     6    2   17 1
     7    3   11 1
     8    3    4 1
     9    4    9 ar
    10    4    5 ar
    11    5    6 ar
    12    5   38 1
    13    6    7 ar
    14    6   13 1
    15    7    8 ar
    16    7   39 1
    17    8    9 ar
    18    8   40 1
    19    9   10 1
    20   10   11 am
    21   10   41 1
    22   11   12 2
    23   13   14 am
    24   13   42 1
    25   14   15 2
    26   14   16 am
    27   16   43 1
    28   16   44 1
    29   17   21 1
    30   17   18 2
    31   18   19 1
    32   18   45 1
    33   19   20 2
    34   19   23 1
    35   20   21 1
    36   20   46 1
    37   21   22 1
    38   23   24 1
    39   23   47 1
    40   23   48 1
    41   24   25 am
    42   24   49 1
    43   25   26 2
    44   25   27 1
    45   27   28 1
    46   27   50 1
    47   27   51 1
    48   28   29 1
    49   28   52 1
    50   28   53 1
    51   29   34 1
    52   29   30 1
    53   29   64 1
    54   30   31 1
    55   30   54 1
    56   30   55 1
    57   31   32 1
    58   31   56 1
    59   31   57 1
    60   32   33 1
    61   32   58 1
    62   32   59 1
    63   33   34 1
    64   33   60 1
    65   33   61 1
    66   34   62 1
    67   34   63 1
@<TRIPOS>MOLECULE
CHEMBL383541
   51    54     0     0     0
SMALL
USER_CHARGES

@<TRIPOS>ATOM
      1 C1         -0.0165    1.3620    0.0095 C.ar      1 <0>        -0.1189
      2 C2          1.1697    2.0834    0.0021 C.ar      1 <0>        -0.0931
      3 C3          2.3856    1.4362   -0.0134 C.ar      1 <0>        -0.1109
      4 C4          2.4281    0.0456   -0.0212 C.ar      1 <0>         0.0986
      5 C5          1.2234   -0.6807   -0.0132 C.ar      1 <0>        -0.1172
      6 C6          0.0021   -0.0041    0.0020 C.ar      1 <0>        -0.1142
      7 C7          1.6036   -2.0953   -0.0245 C.2       1 <0>        -0.2380
      8 C8          2.9451   -2.1410   -0.0380 C.2       1 <0>         0.1041
      9 N1          3.4551   -0.8713   -0.0363 N.pl3     1 <0>        -0.5843
     10 H1          4.3995   -0.6501   -0.0442 H         1 <0>         0.4266
     11 C9          0.6664   -3.2754   -0.0210 C.3       1 <0>        -0.0554
     12 C10         0.2361   -3.5891   -1.4554 C.3       1 <0>         0.0436
     13 H2          1.1200   -3.7379   -2.0756 H         1 <0>         0.1529
     14 C11        -0.6144   -4.8610   -1.4661 C.3       1 <0>         0.0261
     15 O1         -0.9189   -5.2190   -2.8156 O.3       1 <0>        -0.3225
     16 C12        -1.6731   -6.3341   -3.0030 C.ar      1 <0>         0.0676
     17 C13        -2.0060   -6.7496   -4.2851 C.ar      1 <0>        -0.0908
     18 C14        -2.7851   -7.9048   -4.4257 C.ar      1 <0>        -0.0572
     19 C15        -3.1934   -8.5881   -3.2770 C.ar      1 <0>         0.0854
     20 N2         -2.8529   -8.1548   -2.0815 N.ar      1 <0>        -0.4399
     21 C16        -2.1151   -7.0742   -1.9146 C.ar      1 <0>         0.0227
     22 C17        -3.1685   -8.3916   -5.7631 C.2       1 <0>        -0.1112
     23 C18        -3.9158   -9.5004   -5.8851 C.2       1 <0>        -0.0794
     24 C19        -4.2991   -9.9871   -7.2220 C.ar      1 <0>        -0.0253
     25 C20        -3.8897   -9.3113   -8.3798 C.ar      1 <0>        -0.1656
     26 C21        -4.2718   -9.8024   -9.6101 C.ar      1 <0>         0.1035
     27 N3         -5.0117  -10.8910   -9.7057 N.ar      1 <0>        -0.4809
     28 C22        -5.4189  -11.5578   -8.6422 C.ar      1 <0>         0.1045
     29 C23        -5.0787  -11.1423   -7.3724 C.ar      1 <0>        -0.1566
     30 N4         -0.5518   -2.4687   -1.9863 N.4       1 <0>        -0.6362
     31 H3         -0.9613    1.8849    0.0259 H         1 <0>         0.1313
     32 H4          1.1388    3.1630    0.0081 H         1 <0>         0.1354
     33 H5          3.3028    2.0064   -0.0198 H         1 <0>         0.1296
     34 H6         -0.9246   -0.5587    0.0082 H         1 <0>         0.1147
     35 H7          3.5346   -3.0459   -0.0490 H         1 <0>         0.1792
     36 H8          1.1742   -4.1414    0.4036 H         1 <0>         0.1217
     37 H9         -0.2127   -3.0396    0.5787 H         1 <0>         0.0998
     38 H10        -0.0618   -5.6715   -0.9910 H         1 <0>         0.1139
     39 H11        -1.5405   -4.6834   -0.9195 H         1 <0>         0.0920
     40 H12        -1.6732   -6.1966   -5.1511 H         1 <0>         0.1486
     41 H13        -3.7946   -9.4804   -3.3710 H         1 <0>         0.1669
     42 H14        -1.8547   -6.7575   -0.9155 H         1 <0>         0.1583
     43 H15        -2.8484   -7.8565   -6.6448 H         1 <0>         0.1329
     44 H16        -4.2360  -10.0356   -5.0033 H         1 <0>         0.1324
     45 H17        -3.2847   -8.4195   -8.3092 H         1 <0>         0.1364
     46 H18        -3.9614   -9.2889  -10.5081 H         1 <0>         0.1594
     47 H19        -6.0235  -12.4437   -8.7685 H         1 <0>         0.1613
     48 H20        -5.4114  -11.6959   -6.5067 H         1 <0>         0.1407
     49 H21        -1.3700   -2.3311   -1.4122 H         1 <0>         0.4299
     50 H22         0.0090   -1.6300   -1.9793 H         1 <0>         0.4383
     51 H23        -0.8356   -2.6756   -2.9322 H         1 <0>         0.4392
@<TRIPOS>BOND
     1    1    6 ar
     2    1    2 ar
     3    1   31 1
     4    2    3 ar
     5    2   32 1
     6    3    4 ar
     7    3   33 1
     8    4    9 1
     9    4    5 ar
    10    5    6 ar
    11    5    7 1
    12    6   34 1
    13    7    8 2
    14    7   11 1
    15    8    9 1
    16    8   35 1
    17    9   10 1
    18   11   12 1
    19   11   36 1
    20   11   37 1
    21   12   13 1
    22   12   14 1
    23   12   30 1
    24   14   15 1
    25   14   38 1
    26   14   39 1
    27   15   16 1
    28   16   21 ar
    29   16   17 ar
    30   17   18 ar
    31   17   40 1
    32   18   19 ar
    33   18   22 1
    34   19   20 ar
    35   19   41 1
    36   20   21 ar
    37   21   42 1
    38   22   23 2
    39   22   43 1
    40   23   24 1
    41   23   44 1
    42   24   29 ar
    43   24   25 ar
    44   25   26 ar
    45   25   45 1
    46   26   27 ar
    47   26   46 1
    48   27   28 ar
    49   28   29 ar
    50   28   47 1
    51   29   48 1
    52   30   49 1
    53   30   50 1
    54   30   51 1
@<TRIPOS>MOLECULE
CHEMBL594755
   60    64     0     0     0
SMALL
USER_CHARGES

@<TRIPOS>ATOM
      1 C1          5.2103   -4.9967   -5.0142 C.3       1 <0>        -0.0792
      2 C2          4.9874   -4.0028   -3.9036 C.2       1 <0>         0.1307
      3 C3          3.9602   -3.0286   -3.8605 C.ar      1 <0>        -0.0039
      4 C4          4.1215   -2.3184   -2.6524 C.ar      1 <0>         0.2652
      5 N1          5.2065   -2.8657   -2.0201 N.pl3     1 <0>        -0.4772
      6 H1          5.5660   -2.5871   -1.1634 H         1 <0>         0.4528
      7 N2          5.7032   -3.9002   -2.8217 N.2       1 <0>        -0.2124
      8 N3          3.2854   -1.3328   -2.3461 N.ar      1 <0>        -0.4495
      9 C5          2.3075   -1.0196   -3.1696 C.ar      1 <0>         0.1348
     10 C6          2.1405   -1.7210   -4.3716 C.ar      1 <0>         0.1029
     11 N4          2.9675   -2.7070   -4.6897 N.ar      1 <0>        -0.3429
     12 C7          1.0360   -1.3594   -5.2894 C.ar      1 <0>        -0.0968
     13 C8          0.9001   -0.0469   -5.7540 C.ar      1 <0>        -0.0920
     14 C9         -0.1479    0.2444   -6.6104 C.ar      1 <0>        -0.0076
     15 C10        -1.0316   -0.7726   -6.9825 C.ar      1 <0>         0.4208
     16 N5         -0.8801   -2.0050   -6.5281 N.ar      1 <0>        -0.5012
     17 C11         0.1140   -2.3293   -5.7104 C.ar      1 <0>         0.2821
     18 C12         0.2468   -3.7252   -5.2331 C.2       1 <0>        -0.1533
     19 C13         0.1676   -4.1986   -3.8458 C.2       1 <0>        -0.1933
     20 C14         0.3447   -5.5291   -3.8976 C.2       1 <0>        -0.0278
     21 O1          0.5215   -5.8975   -5.1756 O.3       1 <0>        -0.1734
     22 C15         0.4613   -4.8345   -5.9896 C.2       1 <0>         0.0534
     23 C16         0.6098   -4.8633   -7.4890 C.3       1 <0>        -0.0791
     24 N6         -2.0854   -0.4840   -7.8425 N.pl3     1 <0>        -0.8402
     25 O2         -0.3162    1.5081   -7.0848 O.3       1 <0>        -0.3257
     26 C17         0.6279    2.4923   -6.6583 C.3       1 <0>         0.0309
     27 C18         0.2790    3.8414   -7.2901 C.3       1 <0>         0.0434
     28 H2          0.2244    3.7321   -8.3732 H         1 <0>         0.1552
     29 C19         1.3586    4.8655   -6.9346 C.3       1 <0>        -0.0973
     30 C20         1.0808    6.1592   -7.6558 C.ar      1 <0>        -0.1302
     31 C21         1.6088    6.3758   -8.9148 C.ar      1 <0>        -0.1030
     32 C22         1.3539    7.5625   -9.5764 C.ar      1 <0>        -0.1052
     33 C23         0.5707    8.5324   -8.9791 C.ar      1 <0>        -0.1013
     34 C24         0.0420    8.3155   -7.7205 C.ar      1 <0>        -0.1074
     35 C25         0.2933    7.1270   -7.0607 C.ar      1 <0>        -0.1402
     36 N7         -1.0191    4.3006   -6.7782 N.4       1 <0>        -0.6362
     37 H3          4.6441   -5.9050   -4.8080 H         1 <0>         0.0900
     38 H4          4.8765   -4.5670   -5.9587 H         1 <0>         0.0888
     39 H5          6.2715   -5.2369   -5.0792 H         1 <0>         0.0860
     40 H6          1.6295   -0.2177   -2.9174 H         1 <0>         0.1766
     41 H7          1.5963    0.7213   -5.4512 H         1 <0>         0.1435
     42 H8          0.0012   -3.5991   -2.9630 H         1 <0>         0.1450
     43 H9          0.3447   -6.1952   -3.0474 H         1 <0>         0.2041
     44 H10         1.6603   -4.7408   -7.7525 H         1 <0>         0.0857
     45 H11         0.2481   -5.8177   -7.8716 H         1 <0>         0.0818
     46 H12         0.0283   -4.0522   -7.9273 H         1 <0>         0.0900
     47 H13        -2.2032    0.4178   -8.1798 H         1 <0>         0.4091
     48 H14        -2.7028   -1.1846   -8.1052 H         1 <0>         0.4124
     49 H15         0.5954    2.5804   -5.5724 H         1 <0>         0.0898
     50 H16         1.6292    2.1938   -6.9688 H         1 <0>         0.1108
     51 H17         1.3530    5.0408   -5.8588 H         1 <0>         0.1033
     52 H18         2.3344    4.4841   -7.2354 H         1 <0>         0.1247
     53 H19         2.2207    5.6181   -9.3815 H         1 <0>         0.1305
     54 H20         1.7670    7.7321  -10.5598 H         1 <0>         0.1334
     55 H21         0.3722    9.4599   -9.4957 H         1 <0>         0.1330
     56 H22        -0.5697    9.0734   -7.2537 H         1 <0>         0.1325
     57 H23        -0.1229    6.9560   -6.0789 H         1 <0>         0.1227
     58 H24        -0.9686    4.4018   -5.7756 H         1 <0>         0.4323
     59 H25        -1.2492    5.1903   -7.1949 H         1 <0>         0.4363
     60 H26        -1.7311    3.6252   -7.0127 H         1 <0>         0.4415
@<TRIPOS>BOND
     1    1    2 1
     2    1   37 1
     3    1   38 1
     4    1   39 1
     5    2    7 2
     6    2    3 1
     7    3   11 ar
     8    3    4 ar
     9    4    5 1
    10    4    8 ar
    11    5    6 1
    12    5    7 1
    13    8    9 ar
    14    9   10 ar
    15    9   40 1
    16   10   11 ar
    17   10   12 1
    18   12   17 ar
    19   12   13 ar
    20   13   14 ar
    21   13   41 1
    22   14   15 ar
    23   14   25 1
    24   15   16 ar
    25   15   24 1
    26   16   17 ar
    27   17   18 1
    28   18   22 2
    29   18   19 1
    30   19   20 2
    31   19   42 1
    32   20   21 1
    33   20   43 1
    34   21   22 1
    35   22   23 1
    36   23   44 1
    37   23   45 1
    38   23   46 1
    39   24   47 1
    40   24   48 1
    41   25   26 1
    42   26   27 1
    43   26   49 1
    44   26   50 1
    45   27   28 1
    46   27   29 1
    47   27   36 1
    48   29   30 1
    49   29   51 1
    50   29   52 1
    51   30   35 ar
    52   30   31 ar
    53   31   32 ar
    54   31   53 1
    55   32   33 ar
    56   32   54 1
    57   33   34 ar
    58   33   55 1
    59   34   35 ar
    60   34   56 1
    61   35   57 1
    62   36   58 1
    63   36   59 1
    64   36   60 1
@<TRIPOS>MOLECULE
CHEMBL252261
   66    71     0     0     0
SMALL
USER_CHARGES

@<TRIPOS>ATOM
      1 C1         -0.0225    1.8097    0.0120 C.3       1 <0>        -0.1464
      2 S1          0.0021   -0.0041    0.0020 S.3       1 <0>         0.0183
      3 C2          0.8767   -0.4266    1.4721 C.ar      1 <0>         0.3225
      4 N1          1.3174    0.5551    2.2576 N.ar      1 <0>        -0.5343
      5 C3          1.9766    0.3014    3.3689 C.ar      1 <0>         0.2359
      6 C4          2.2114   -1.0411    3.7185 C.ar      1 <0>        -0.2317
      7 C5          2.9053   -1.3920    4.8864 C.ar      1 <0>        -0.0018
      8 C6          3.0909   -2.7406    5.1528 C.ar      1 <0>        -0.1018
      9 C7          2.5820   -3.7021    4.2518 C.ar      1 <0>         0.2705
     10 N2          1.9327   -3.3451    3.1593 N.ar      1 <0>        -0.4629
     11 C8          1.7278   -2.0628    2.8584 C.ar      1 <0>         0.3655
     12 N3          1.0636   -1.7028    1.7525 N.ar      1 <0>        -0.4820
     13 C9          2.7816   -5.1415    4.5386 C.ar      1 <0>        -0.0689
     14 C10         3.9528   -5.5760    5.1591 C.ar      1 <0>        -0.0770
     15 C11         4.1327   -6.9181    5.4241 C.ar      1 <0>        -0.1194
     16 C12         3.1545   -7.8322    5.0753 C.ar      1 <0>        -0.0598
     17 C13         1.9909   -7.4074    4.4592 C.ar      1 <0>        -0.1039
     18 C14         1.7967   -6.0672    4.1946 C.ar      1 <0>        -0.0674
     19 C15         3.3576   -9.2966    5.3671 C.3       1 <0>         0.0960
     20 N4          2.8280   -9.6080    6.7015 N.3       1 <0>        -0.6805
     21 C16         3.0090  -11.0304    7.0209 C.3       1 <0>         0.0674
     22 C17         2.4465  -11.3156    8.4149 C.3       1 <0>        -0.0240
     23 C18         2.6322  -12.7748    8.7426 C.2       1 <0>         0.2348
     24 N5          1.7617  -13.7425    8.4697 N.2       1 <0>        -0.5233
     25 C19         2.2346  -14.8984    8.8892 C.2       1 <0>         0.3308
     26 N6          3.4448  -14.6713    9.4490 N.pl3     1 <0>        -0.4776
     27 H1          4.0352  -15.3304    9.8463 H         1 <0>         0.4412
     28 N7          3.6775  -13.2910    9.3355 N.2       1 <0>        -0.3074
     29 C20         1.5616  -16.2109    8.7697 C.ar      1 <0>        -0.0393
     30 C21         0.3096  -16.3032    8.1616 C.ar      1 <0>        -0.0635
     31 C22        -0.3128  -17.5299    8.0532 C.ar      1 <0>        -0.1199
     32 C23         0.3022  -18.6668    8.5466 C.ar      1 <0>        -0.0969
     33 C24         1.5436  -18.5817    9.1512 C.ar      1 <0>        -0.1186
     34 C25         2.1792  -17.3618    9.2596 C.ar      1 <0>        -0.0981
     35 C26         3.8172   -3.1690    6.3720 C.ar      1 <0>        -0.0514
     36 C27         3.2649   -4.1343    7.2126 C.ar      1 <0>        -0.0869
     37 C28         3.9459   -4.5295    8.3460 C.ar      1 <0>        -0.1151
     38 C29         5.1740   -3.9694    8.6488 C.ar      1 <0>        -0.1099
     39 C30         5.7270   -3.0112    7.8184 C.ar      1 <0>        -0.1186
     40 C31         5.0579   -2.6123    6.6792 C.ar      1 <0>        -0.1073
     41 H2          1.0001    2.1870    0.0043 H         1 <0>         0.0910
     42 H3         -0.5497    2.1708   -0.8711 H         1 <0>         0.1141
     43 H4         -0.5327    2.1613    0.9088 H         1 <0>         0.0912
     44 H5          2.3293    1.1056    3.9977 H         1 <0>         0.1843
     45 H6          3.2838   -0.6351    5.5574 H         1 <0>         0.1543
     46 H7          4.7174   -4.8634    5.4312 H         1 <0>         0.1314
     47 H8          5.0391   -7.2558    5.9044 H         1 <0>         0.1239
     48 H9          1.2311   -8.1257    4.1890 H         1 <0>         0.1301
     49 H10         0.8860   -5.7362    3.7177 H         1 <0>         0.1316
     50 H11         2.8331   -9.8921    4.6199 H         1 <0>         0.0850
     51 H12         4.4220   -9.5292    5.3353 H         1 <0>         0.0424
     52 H13         3.2528   -9.0225    7.4048 H         1 <0>         0.3437
     53 H14         2.4820  -11.6379    6.2852 H         1 <0>         0.0806
     54 H15         4.0710  -11.2750    7.0006 H         1 <0>         0.0344
     55 H16         2.9734  -10.7080    9.1506 H         1 <0>         0.0878
     56 H17         1.3845  -11.0710    8.4352 H         1 <0>         0.1039
     57 H18        -0.1718  -15.4164    7.7767 H         1 <0>         0.1410
     58 H19        -1.2821  -17.6027    7.5826 H         1 <0>         0.1335
     59 H20        -0.1892  -19.6246    8.4597 H         1 <0>         0.1299
     60 H21         2.0184  -19.4727    9.5347 H         1 <0>         0.1316
     61 H22         3.1505  -17.2974    9.7274 H         1 <0>         0.1213
     62 H23         2.3059   -4.5717    6.9776 H         1 <0>         0.1248
     63 H24         3.5191   -5.2772    8.9980 H         1 <0>         0.1268
     64 H25         5.7030   -4.2813    9.5372 H         1 <0>         0.1241
     65 H26         6.6860   -2.5771    8.0600 H         1 <0>         0.1258
     66 H27         5.4926   -1.8673    6.0293 H         1 <0>         0.1241
@<TRIPOS>BOND
     1    1    2 1
     2    1   41 1
     3    1   42 1
     4    1   43 1
     5    2    3 1
     6    3   12 ar
     7    3    4 ar
     8    4    5 ar
     9    5    6 ar
    10    5   44 1
    11    6   11 ar
    12    6    7 ar
    13    7    8 ar
    14    7   45 1
    15    8    9 ar
    16    8   35 1
    17    9   10 ar
    18    9   13 1
    19   10   11 ar
    20   11   12 ar
    21   13   18 ar
    22   13   14 ar
    23   14   15 ar
    24   14   46 1
    25   15   16 ar
    26   15   47 1
    27   16   17 ar
    28   16   19 1
    29   17   18 ar
    30   17   48 1
    31   18   49 1
    32   19   20 1
    33   19   50 1
    34   19   51 1
    35   20   21 1
    36   20   52 1
    37   21   22 1
    38   21   53 1
    39   21   54 1
    40   22   23 1
    41   22   55 1
    42   22   56 1
    43   23   28 2
    44   23   24 1
    45   24   25 2
    46   25   26 1
    47   25   29 1
    48   26   27 1
    49   26   28 1
    50   29   34 ar
    51   29   30 ar
    52   30   31 ar
    53   30   57 1
    54   31   32 ar
    55   31   58 1
    56   32   33 ar
    57   32   59 1
    58   33   34 ar
    59   33   60 1
    60   34   61 1
    61   35   40 ar
    62   35   36 ar
    63   36   37 ar
    64   36   62 1
    65   37   38 ar
    66   37   63 1
    67   38   39 ar
    68   38   64 1
    69   39   40 ar
    70   39   65 1
    71   40   66 1
@<TRIPOS>MOLECULE
CHEMBL252261
   67    72     0     0     0
SMALL
USER_CHARGES

@<TRIPOS>ATOM
      1 C1         -0.0225    1.8097    0.0120 C.3       1 <0>        -0.1491
      2 S1          0.0021   -0.0041    0.0020 S.3       1 <0>         0.0311
      3 C2          0.8767   -0.4266    1.4721 C.ar      1 <0>         0.3273
      4 N1          1.3174    0.5551    2.2576 N.ar      1 <0>        -0.5275
      5 C3          1.9766    0.3014    3.3689 C.ar      1 <0>         0.2402
      6 C4          2.2114   -1.0411    3.7185 C.ar      1 <0>        -0.2286
      7 C5          2.9053   -1.3920    4.8864 C.ar      1 <0>         0.0093
      8 C6          3.0909   -2.7406    5.1528 C.ar      1 <0>        -0.1094
      9 C7          2.5820   -3.7021    4.2518 C.ar      1 <0>         0.2456
     10 N2          1.9327   -3.3451    3.1593 N.ar      1 <0>        -0.4552
     11 C8          1.7278   -2.0628    2.8584 C.ar      1 <0>         0.3664
     12 N3          1.0636   -1.7028    1.7525 N.ar      1 <0>        -0.4844
     13 C9          2.7816   -5.1415    4.5386 C.ar      1 <0>        -0.0170
     14 C10         3.9528   -5.5760    5.1591 C.ar      1 <0>        -0.0777
     15 C11         4.1327   -6.9181    5.4241 C.ar      1 <0>        -0.0960
     16 C12         3.1545   -7.8322    5.0753 C.ar      1 <0>        -0.1534
     17 C13         1.9909   -7.4074    4.4592 C.ar      1 <0>        -0.0952
     18 C14         1.7967   -6.0672    4.1946 C.ar      1 <0>        -0.0703
     19 C15         3.3576   -9.2966    5.3671 C.3       1 <0>         0.0461
     20 N4          2.8280   -9.6080    6.7015 N.4       1 <0>        -0.5082
     21 C16         3.0259  -11.0356    6.9860 C.3       1 <0>        -0.0028
     22 C17         2.4742  -11.3599    8.3757 C.3       1 <0>        -0.0620
     23 C18         2.6773  -12.8244    8.6675 C.2       1 <0>         0.2661
     24 N5          2.2676  -13.8171    7.9231 N.2       1 <0>        -0.5196
     25 C19         2.6214  -14.9810    8.4847 C.2       1 <0>         0.2862
     26 N6          3.2660  -14.7307    9.6031 N.2       1 <0>        -0.2826
     27 H1          3.7294  -12.8339   10.4577 H         1 <0>         0.4463
     28 N7          3.3165  -13.3336    9.7361 N.pl3     1 <0>        -0.4687
     29 C20         2.3331  -16.3293    7.9356 C.ar      1 <0>        -0.0350
     30 C21         1.6428  -16.4613    6.7326 C.ar      1 <0>        -0.0742
     31 C22         1.3777  -17.7177    6.2263 C.ar      1 <0>        -0.1245
     32 C23         1.7961  -18.8444    6.9109 C.ar      1 <0>        -0.0940
     33 C24         2.4818  -18.7191    8.1056 C.ar      1 <0>        -0.1212
     34 C25         2.7568  -17.4675    8.6184 C.ar      1 <0>        -0.0804
     35 C26         3.8172   -3.1690    6.3720 C.ar      1 <0>        -0.0502
     36 C27         3.2649   -4.1343    7.2126 C.ar      1 <0>        -0.0998
     37 C28         3.9459   -4.5295    8.3460 C.ar      1 <0>        -0.1204
     38 C29         5.1740   -3.9694    8.6488 C.ar      1 <0>        -0.1093
     39 C30         5.7270   -3.0112    7.8184 C.ar      1 <0>        -0.1114
     40 C31         5.0579   -2.6123    6.6792 C.ar      1 <0>        -0.1030
     41 H2          1.0001    2.1870    0.0043 H         1 <0>         0.0935
     42 H3         -0.5497    2.1708   -0.8711 H         1 <0>         0.1180
     43 H4         -0.5327    2.1613    0.9088 H         1 <0>         0.0935
     44 H5          2.3293    1.1056    3.9977 H         1 <0>         0.1882
     45 H6          3.2838   -0.6351    5.5574 H         1 <0>         0.1578
     46 H7          4.7174   -4.8634    5.4312 H         1 <0>         0.1444
     47 H8          5.0391   -7.2558    5.9044 H         1 <0>         0.1362
     48 H9          1.2311   -8.1257    4.1890 H         1 <0>         0.1384
     49 H10         0.8860   -5.7362    3.7177 H         1 <0>         0.1442
     50 H11         2.8331   -9.8921    4.6199 H         1 <0>         0.1430
     51 H12         4.4220   -9.5292    5.3353 H         1 <0>         0.1405
     52 H13         3.3135   -9.0567    7.3931 H         1 <0>         0.4273
     53 H14         2.5014  -11.6311    6.2388 H         1 <0>         0.1499
     54 H15         4.0903  -11.2682    6.9542 H         1 <0>         0.1371
     55 H16         2.9988  -10.7644    9.1229 H         1 <0>         0.1112
     56 H17         1.4098  -11.1273    8.4075 H         1 <0>         0.1244
     57 H18         1.3153  -15.5822    6.1974 H         1 <0>         0.1327
     58 H19         0.8424  -17.8212    5.2940 H         1 <0>         0.1317
     59 H20         1.5863  -19.8256    6.5113 H         1 <0>         0.1306
     60 H21         2.8062  -19.6021    8.6361 H         1 <0>         0.1326
     61 H22         3.2959  -17.3707    9.5492 H         1 <0>         0.1313
     62 H23         2.3059   -4.5717    6.9776 H         1 <0>         0.1208
     63 H24         3.5191   -5.2772    8.9980 H         1 <0>         0.1232
     64 H25         5.7030   -4.2813    9.5372 H         1 <0>         0.1265
     65 H26         6.6860   -2.5771    8.0600 H         1 <0>         0.1305
     66 H27         5.4926   -1.8673    6.0293 H         1 <0>         0.1285
     67 H28         1.8426   -9.3927    6.7309 H         1 <0>         0.4306
@<TRIPOS>BOND
     1    1    2 1
     2    1   41 1
     3    1   42 1
     4    1   43 1
     5    2    3 1
     6    3   12 ar
     7    3    4 ar
     8    4    5 ar
     9    5    6 ar
    10    5   44 1
    11    6   11 ar
    12    6    7 ar
    13    7    8 ar
    14    7   45 1
    15    8    9 ar
    16    8   35 1
    17    9   10 ar
    18    9   13 1
    19   10   11 ar
    20   11   12 ar
    21   13   18 ar
    22   13   14 ar
    23   14   15 ar
    24   14   46 1
    25   15   16 ar
    26   15   47 1
    27   16   17 ar
    28   16   19 1
    29   17   18 ar
    30   17   48 1
    31   18   49 1
    32   19   20 1
    33   19   50 1
    34   19   51 1
    35   20   21 1
    36   20   52 1
    37   20   67 1
    38   21   22 1
    39   21   53 1
    40   21   54 1
    41   22   55 1
    42   22   56 1
    43   22   23 1
    44   23   24 2
    45   23   28 1
    46   24   25 1
    47   25   29 1
    48   25   26 2
    49   26   28 1
    50   27   28 1
    51   29   34 ar
    52   29   30 ar
    53   30   31 ar
    54   30   57 1
    55   31   32 ar
    56   31   58 1
    57   32   33 ar
    58   32   59 1
    59   33   34 ar
    60   33   60 1
    61   34   61 1
    62   35   40 ar
    63   35   36 ar
    64   36   37 ar
    65   36   62 1
    66   37   38 ar
    67   37   63 1
    68   38   39 ar
    69   38   64 1
    70   39   40 ar
    71   39   65 1
    72   40   66 1
@<TRIPOS>MOLECULE
CHEMBL252261
   66    71     0     0     0
SMALL
USER_CHARGES

@<TRIPOS>ATOM
      1 C1         -0.0225    1.8097    0.0120 C.3       1 <0>        -0.1466
      2 S1          0.0021   -0.0041    0.0020 S.3       1 <0>         0.0191
      3 C2          0.8484   -0.4107   -1.4889 C.ar      1 <0>         0.3227
      4 N1          1.2837    0.5796   -2.2667 N.ar      1 <0>        -0.5341
      5 C3          1.9229    0.3379   -3.3923 C.ar      1 <0>         0.2361
      6 C4          2.1419   -1.0009   -3.7658 C.ar      1 <0>        -0.2318
      7 C5          2.8151   -1.3392   -4.9495 C.ar      1 <0>        -0.0013
      8 C6          2.9869   -2.6849   -5.2387 C.ar      1 <0>        -0.1027
      9 C7          2.4852   -3.6562   -4.3441 C.ar      1 <0>         0.2698
     10 N2          1.8548   -3.3109   -3.2368 N.ar      1 <0>        -0.4626
     11 C8          1.6645   -2.0319   -2.9134 C.ar      1 <0>         0.3657
     12 N3          1.0298   -1.6838   -1.7865 N.ar      1 <0>        -0.4820
     13 C9          2.6699   -5.0924   -4.6553 C.ar      1 <0>        -0.0678
     14 C10         2.6327   -5.5326   -5.9783 C.ar      1 <0>        -0.0772
     15 C11         2.8060   -6.8718   -6.2619 C.ar      1 <0>        -0.1195
     16 C12         3.0157   -7.7773   -5.2372 C.ar      1 <0>        -0.0611
     17 C13         3.0532   -7.3469   -3.9229 C.ar      1 <0>        -0.1034
     18 C14         2.8875   -6.0093   -3.6271 C.ar      1 <0>        -0.0675
     19 C15         3.2037   -9.2386   -5.5539 C.3       1 <0>         0.0966
     20 N4          4.6315   -9.5150   -5.7612 N.3       1 <0>        -0.6814
     21 C16         4.8533  -10.9334   -6.0727 C.3       1 <0>         0.0677
     22 C17         6.3485  -11.1819   -6.2815 C.3       1 <0>        -0.0398
     23 C18         6.5761  -12.6369   -6.6010 C.2       1 <0>         0.2921
     24 N5          6.1836  -13.6504   -5.8755 N.2       1 <0>        -0.5249
     25 C19         6.5553  -14.7973   -6.4598 C.2       1 <0>         0.2723
     26 N6          7.1941  -14.5150   -7.5740 N.2       1 <0>        -0.3038
     27 H1          7.6094  -12.5953   -8.4017 H         1 <0>         0.4419
     28 N7          7.2131  -13.1152   -7.6851 N.pl3     1 <0>        -0.4796
     29 C20         6.2903  -16.1604   -5.9362 C.ar      1 <0>        -0.0201
     30 C21         5.5948  -16.3271   -4.7405 C.ar      1 <0>        -0.0747
     31 C22         5.3507  -17.5971   -4.2583 C.ar      1 <0>        -0.1250
     32 C23         5.7953  -18.7032   -4.9598 C.ar      1 <0>        -0.1029
     33 C24         6.4863  -18.5435   -6.1473 C.ar      1 <0>        -0.1247
     34 C25         6.7313  -17.2782   -6.6414 C.ar      1 <0>        -0.0845
     35 C26         3.6902   -3.1001   -6.4757 C.ar      1 <0>        -0.0506
     36 C27         4.7183   -4.0397   -6.4143 C.ar      1 <0>        -0.0871
     37 C28         5.3692   -4.4227   -7.5693 C.ar      1 <0>        -0.1156
     38 C29         5.0036   -3.8759   -8.7863 C.ar      1 <0>        -0.1104
     39 C30         3.9842   -2.9431   -8.8533 C.ar      1 <0>        -0.1183
     40 C31         3.3223   -2.5567   -7.7057 C.ar      1 <0>        -0.1070
     41 H2          1.0001    2.1870    0.0043 H         1 <0>         0.0913
     42 H3         -0.5497    2.1708   -0.8711 H         1 <0>         0.0912
     43 H4         -0.5327    2.1613    0.9088 H         1 <0>         0.1143
     44 H5          2.2708    1.1489   -4.0150 H         1 <0>         0.1844
     45 H6          3.1879   -0.5750   -5.6154 H         1 <0>         0.1543
     46 H7          2.4684   -4.8268   -6.7790 H         1 <0>         0.1314
     47 H8          2.7774   -7.2139   -7.2859 H         1 <0>         0.1234
     48 H9          3.2169   -8.0585   -3.1272 H         1 <0>         0.1305
     49 H10         2.9213   -5.6738   -2.6011 H         1 <0>         0.1319
     50 H11         2.8338   -9.8407   -4.7239 H         1 <0>         0.0870
     51 H12         2.6501   -9.4884   -6.4590 H         1 <0>         0.0430
     52 H13         5.0135   -8.9223   -6.4828 H         1 <0>         0.3420
     53 H14         4.4949  -11.5472   -5.2464 H         1 <0>         0.0924
     54 H15         4.3112  -11.1949   -6.9814 H         1 <0>         0.0335
     55 H16         6.7070  -10.5680   -7.1078 H         1 <0>         0.0865
     56 H17         6.8907  -10.9203   -5.3727 H         1 <0>         0.1126
     57 H18         5.2475  -15.4641   -4.1918 H         1 <0>         0.1356
     58 H19         4.8119  -17.7274   -3.3314 H         1 <0>         0.1293
     59 H20         5.6025  -19.6951   -4.5787 H         1 <0>         0.1263
     60 H21         6.8313  -19.4105   -6.6910 H         1 <0>         0.1284
     61 H22         7.2673  -17.1547   -7.5708 H         1 <0>         0.1298
     62 H23         5.0050   -4.4667   -5.4647 H         1 <0>         0.1247
     63 H24         6.1658   -5.1505   -7.5230 H         1 <0>         0.1260
     64 H25         5.5163   -4.1781   -9.6875 H         1 <0>         0.1238
     65 H26         3.7033   -2.5193   -9.8062 H         1 <0>         0.1260
     66 H27         2.5236   -1.8318   -7.7599 H         1 <0>         0.1244
@<TRIPOS>BOND
     1    1    2 1
     2    1   41 1
     3    1   42 1
     4    1   43 1
     5    2    3 1
     6    3   12 ar
     7    3    4 ar
     8    4    5 ar
     9    5    6 ar
    10    5   44 1
    11    6   11 ar
    12    6    7 ar
    13    7    8 ar
    14    7   45 1
    15    8    9 ar
    16    8   35 1
    17    9   10 ar
    18    9   13 1
    19   10   11 ar
    20   11   12 ar
    21   13   18 ar
    22   13   14 ar
    23   14   15 ar
    24   14   46 1
    25   15   16 ar
    26   15   47 1
    27   16   17 ar
    28   16   19 1
    29   17   18 ar
    30   17   48 1
    31   18   49 1
    32   19   20 1
    33   19   50 1
    34   19   51 1
    35   20   21 1
    36   20   52 1
    37   21   22 1
    38   21   53 1
    39   21   54 1
    40   22   55 1
    41   22   56 1
    42   22   23 1
    43   23   24 2
    44   23   28 1
    45   24   25 1
    46   25   29 1
    47   25   26 2
    48   26   28 1
    49   27   28 1
    50   29   34 ar
    51   29   30 ar
    52   30   31 ar
    53   30   57 1
    54   31   32 ar
    55   31   58 1
    56   32   33 ar
    57   32   59 1
    58   33   34 ar
    59   33   60 1
    60   34   61 1
    61   35   40 ar
    62   35   36 ar
    63   36   37 ar
    64   36   62 1
    65   37   38 ar
    66   37   63 1
    67   38   39 ar
    68   38   64 1
    69   39   40 ar
    70   39   65 1
    71   40   66 1
@<TRIPOS>MOLECULE
CHEMBL252261
   67    72     0     0     0
SMALL
USER_CHARGES

@<TRIPOS>ATOM
      1 C1         -0.0225    1.8097    0.0120 C.3       1 <0>        -0.1489
      2 S1          0.0021   -0.0041    0.0020 S.3       1 <0>         0.0301
      3 C2         -1.7016   -0.4536    0.0159 C.ar      1 <0>         0.3271
      4 N1         -2.6174    0.5141    0.0243 N.ar      1 <0>        -0.5277
      5 C3         -3.9053    0.2400    0.0344 C.ar      1 <0>         0.2400
      6 C4         -4.3044   -1.1092    0.0361 C.ar      1 <0>        -0.2284
      7 C5         -5.6573   -1.4815    0.0460 C.ar      1 <0>         0.0087
      8 C6         -5.9597   -2.8353    0.0465 C.ar      1 <0>        -0.1084
      9 C7         -4.9101   -3.7806    0.0372 C.ar      1 <0>         0.2462
     10 N2         -3.6450   -3.4035    0.0283 N.ar      1 <0>        -0.4556
     11 C8         -3.3020   -2.1154    0.0269 C.ar      1 <0>         0.3661
     12 N3         -2.0179   -1.7350    0.0120 N.ar      1 <0>        -0.4844
     13 C9         -5.2358   -5.2255    0.0378 C.ar      1 <0>        -0.0181
     14 C10        -6.3516   -5.6914    0.7329 C.ar      1 <0>        -0.0774
     15 C11        -6.6501   -7.0385    0.7294 C.ar      1 <0>        -0.0955
     16 C12        -5.8450   -7.9265    0.0386 C.ar      1 <0>        -0.1522
     17 C13        -4.7366   -7.4705   -0.6524 C.ar      1 <0>        -0.0961
     18 C14        -4.4313   -6.1249   -0.6615 C.ar      1 <0>        -0.0704
     19 C15        -6.1764   -9.3966    0.0392 C.3       1 <0>         0.0458
     20 N4         -7.0625   -9.6993   -1.0927 N.4       1 <0>        -0.5070
     21 C16        -7.3856  -11.1323   -1.0921 C.3       1 <0>        -0.0037
     22 C17        -8.3084  -11.4476   -2.2710 C.3       1 <0>        -0.0459
     23 C18        -8.6398  -12.9177   -2.2704 C.2       1 <0>         0.2111
     24 N5         -9.6737  -13.4740   -1.6456 N.2       1 <0>        -0.5278
     25 C19        -9.6700  -14.7756   -1.8502 C.2       1 <0>         0.3536
     26 N6         -8.6038  -15.0685   -2.6292 N.pl3     1 <0>        -0.4662
     27 H1         -8.3390  -15.9457   -2.9476 H         1 <0>         0.4490
     28 N7         -7.9595  -13.8479   -2.8889 N.2       1 <0>        -0.2942
     29 C20       -10.6562  -15.7441   -1.3218 C.ar      1 <0>        -0.0558
     30 C21       -11.7166  -15.3026   -0.5302 C.ar      1 <0>        -0.0610
     31 C22       -12.6327  -16.2106   -0.0404 C.ar      1 <0>        -0.1199
     32 C23       -12.5011  -17.5565   -0.3324 C.ar      1 <0>        -0.0870
     33 C24       -11.4514  -18.0006   -1.1165 C.ar      1 <0>        -0.1160
     34 C25       -10.5324  -17.1017   -1.6178 C.ar      1 <0>        -0.0932
     35 C26        -7.3718   -3.2860    0.0573 C.ar      1 <0>        -0.0512
     36 C27        -7.8088   -4.2401   -0.8605 C.ar      1 <0>        -0.0997
     37 C28        -9.1245   -4.6562   -0.8454 C.ar      1 <0>        -0.1198
     38 C29       -10.0092   -4.1282    0.0777 C.ar      1 <0>        -0.1086
     39 C30        -9.5813   -3.1812    0.9908 C.ar      1 <0>        -0.1117
     40 C31        -8.2666   -2.7617    0.9890 C.ar      1 <0>        -0.1033
     41 H2          1.0001    2.1870    0.0043 H         1 <0>         0.1177
     42 H3         -0.5497    2.1708   -0.8711 H         1 <0>         0.0934
     43 H4         -0.5327    2.1613    0.9088 H         1 <0>         0.0934
     44 H5         -4.6386    1.0328    0.0415 H         1 <0>         0.1881
     45 H6         -6.4393   -0.7367    0.0534 H         1 <0>         0.1579
     46 H7         -6.9805   -4.9992    1.2732 H         1 <0>         0.1446
     47 H8         -7.5139   -7.4005    1.2673 H         1 <0>         0.1371
     48 H9         -4.1117   -8.1686   -1.1895 H         1 <0>         0.1375
     49 H10        -3.5683   -5.7695   -1.2049 H         1 <0>         0.1437
     50 H11        -5.2579   -9.9762   -0.0533 H         1 <0>         0.1404
     51 H12        -6.6772   -9.6558    0.9721 H         1 <0>         0.1408
     52 H13        -7.9127   -9.1628   -1.0071 H         1 <0>         0.4294
     53 H14        -6.4671  -11.7119   -1.1846 H         1 <0>         0.1366
     54 H15        -7.8863  -11.3915   -0.1593 H         1 <0>         0.1398
     55 H16        -9.2269  -10.8680   -2.1785 H         1 <0>         0.1169
     56 H17        -7.8077  -11.1884   -3.2038 H         1 <0>         0.1122
     57 H18       -11.8200  -14.2523   -0.3009 H         1 <0>         0.1390
     58 H19       -13.4541  -15.8701    0.5726 H         1 <0>         0.1361
     59 H20       -13.2205  -18.2634    0.0536 H         1 <0>         0.1343
     60 H21       -11.3537  -19.0526   -1.3407 H         1 <0>         0.1358
     61 H22        -9.7161  -17.4490   -2.2338 H         1 <0>         0.1228
     62 H23        -7.1192   -4.6525   -1.5821 H         1 <0>         0.1208
     63 H24        -9.4642   -5.3953   -1.5559 H         1 <0>         0.1240
     64 H25       -11.0381   -4.4564    0.0854 H         1 <0>         0.1270
     65 H26       -10.2765   -2.7723    1.7090 H         1 <0>         0.1304
     66 H27        -7.9325   -2.0256    1.7052 H         1 <0>         0.1281
     67 H28        -6.5989   -9.4594   -1.9562 H         1 <0>         0.4293
@<TRIPOS>BOND
     1    1    2 1
     2    1   41 1
     3    1   42 1
     4    1   43 1
     5    2    3 1
     6    3   12 ar
     7    3    4 ar
     8    4    5 ar
     9    5    6 ar
    10    5   44 1
    11    6   11 ar
    12    6    7 ar
    13    7    8 ar
    14    7   45 1
    15    8    9 ar
    16    8   35 1
    17    9   10 ar
    18    9   13 1
    19   10   11 ar
    20   11   12 ar
    21   13   18 ar
    22   13   14 ar
    23   14   15 ar
    24   14   46 1
    25   15   16 ar
    26   15   47 1
    27   16   17 ar
    28   16   19 1
    29   17   18 ar
    30   17   48 1
    31   18   49 1
    32   19   20 1
    33   19   50 1
    34   19   51 1
    35   20   21 1
    36   20   52 1
    37   20   67 1
    38   21   22 1
    39   21   53 1
    40   21   54 1
    41   22   55 1
    42   22   56 1
    43   22   23 1
    44   23   24 1
    45   23   28 2
    46   24   25 2
    47   25   29 1
    48   25   26 1
    49   26   28 1
    50   26   27 1
    51   29   34 ar
    52   29   30 ar
    53   30   31 ar
    54   30   57 1
    55   31   32 ar
    56   31   58 1
    57   32   33 ar
    58   32   59 1
    59   33   34 ar
    60   33   60 1
    61   34   61 1
    62   35   40 ar
    63   35   36 ar
    64   36   37 ar
    65   36   62 1
    66   37   38 ar
    67   37   63 1
    68   38   39 ar
    69   38   64 1
    70   39   40 ar
    71   39   65 1
    72   40   66 1
@<TRIPOS>MOLECULE
CHEMBL252455
   57    61     0     0     0
SMALL
USER_CHARGES

@<TRIPOS>ATOM
      1 C1         -0.0225    1.8097    0.0120 C.3       1 <0>        -0.1464
      2 S1          0.0021   -0.0041    0.0020 S.3       1 <0>         0.0183
      3 C2          0.8767   -0.4266    1.4721 C.ar      1 <0>         0.3225
      4 N1          1.3174    0.5551    2.2576 N.ar      1 <0>        -0.5342
      5 C3          1.9766    0.3014    3.3689 C.ar      1 <0>         0.2360
      6 C4          2.2114   -1.0411    3.7185 C.ar      1 <0>        -0.2316
      7 C5          2.9053   -1.3920    4.8864 C.ar      1 <0>        -0.0017
      8 C6          3.0909   -2.7406    5.1528 C.ar      1 <0>        -0.1017
      9 C7          2.5820   -3.7021    4.2518 C.ar      1 <0>         0.2700
     10 N2          1.9327   -3.3451    3.1593 N.ar      1 <0>        -0.4629
     11 C8          1.7278   -2.0628    2.8584 C.ar      1 <0>         0.3654
     12 N3          1.0636   -1.7028    1.7525 N.ar      1 <0>        -0.4822
     13 C9          2.7816   -5.1415    4.5386 C.ar      1 <0>        -0.0681
     14 C10         3.9528   -5.5760    5.1591 C.ar      1 <0>        -0.0768
     15 C11         4.1327   -6.9181    5.4241 C.ar      1 <0>        -0.1188
     16 C12         3.1545   -7.8322    5.0753 C.ar      1 <0>        -0.0607
     17 C13         1.9909   -7.4074    4.4592 C.ar      1 <0>        -0.1042
     18 C14         1.7967   -6.0672    4.1946 C.ar      1 <0>        -0.0678
     19 C15         3.3576   -9.2966    5.3671 C.3       1 <0>         0.0958
     20 N4          2.8280   -9.6080    6.7015 N.3       1 <0>        -0.6818
     21 C16         3.0090  -11.0304    7.0209 C.3       1 <0>         0.0629
     22 C17         2.4465  -11.3156    8.4149 C.3       1 <0>        -0.0154
     23 C18         2.6322  -12.7748    8.7426 C.2       1 <0>         0.0463
     24 N5          3.6351  -13.3878    9.3377 N.2       1 <0>        -0.2399
     25 N6          3.6370  -14.6327    9.5403 N.2       1 <0>        -0.3595
     26 C19         2.6250  -15.4036    9.1650 C.2       1 <0>         0.3375
     27 S2          1.5493  -14.1685    8.4414 S.3       1 <0>        -0.0529
     28 N7          2.4485  -16.7728    9.2992 N.pl3     1 <0>        -0.7844
     29 C20         3.8172   -3.1690    6.3720 C.ar      1 <0>        -0.0517
     30 C21         3.2649   -4.1343    7.2126 C.ar      1 <0>        -0.0872
     31 C22         3.9459   -4.5295    8.3460 C.ar      1 <0>        -0.1151
     32 C23         5.1740   -3.9694    8.6488 C.ar      1 <0>        -0.1096
     33 C24         5.7270   -3.0112    7.8184 C.ar      1 <0>        -0.1184
     34 C25         5.0579   -2.6123    6.6792 C.ar      1 <0>        -0.1072
     35 H1          1.0001    2.1870    0.0043 H         1 <0>         0.0911
     36 H2         -0.5497    2.1708   -0.8711 H         1 <0>         0.1141
     37 H3         -0.5327    2.1613    0.9088 H         1 <0>         0.0913
     38 H4          2.3293    1.1056    3.9977 H         1 <0>         0.1843
     39 H5          3.2838   -0.6351    5.5574 H         1 <0>         0.1544
     40 H6          4.7174   -4.8634    5.4312 H         1 <0>         0.1317
     41 H7          5.0391   -7.2558    5.9044 H         1 <0>         0.1246
     42 H8          1.2311   -8.1257    4.1890 H         1 <0>         0.1296
     43 H9          0.8860   -5.7362    3.7177 H         1 <0>         0.1315
     44 H10         2.8331   -9.8921    4.6199 H         1 <0>         0.0849
     45 H11         4.4220   -9.5292    5.3353 H         1 <0>         0.0443
     46 H12         3.2528   -9.0225    7.4048 H         1 <0>         0.3456
     47 H13         2.4820  -11.6379    6.2852 H         1 <0>         0.0786
     48 H14         4.0710  -11.2750    7.0006 H         1 <0>         0.0416
     49 H15         2.9734  -10.7080    9.1506 H         1 <0>         0.1027
     50 H16         1.3845  -11.0710    8.4352 H         1 <0>         0.1029
     51 H17         3.1340  -17.3108    9.7252 H         1 <0>         0.4228
     52 H18         1.6395  -17.1923    8.9669 H         1 <0>         0.4238
     53 H19         2.3059   -4.5717    6.9776 H         1 <0>         0.1246
     54 H20         3.5191   -5.2772    8.9980 H         1 <0>         0.1269
     55 H21         5.7030   -4.2813    9.5372 H         1 <0>         0.1245
     56 H22         6.6860   -2.5771    8.0600 H         1 <0>         0.1259
     57 H23         5.4926   -1.8673    6.0293 H         1 <0>         0.1241
@<TRIPOS>BOND
     1    1    2 1
     2    1   35 1
     3    1   36 1
     4    1   37 1
     5    2    3 1
     6    3   12 ar
     7    3    4 ar
     8    4    5 ar
     9    5    6 ar
    10    5   38 1
    11    6   11 ar
    12    6    7 ar
    13    7    8 ar
    14    7   39 1
    15    8    9 ar
    16    8   29 1
    17    9   10 ar
    18    9   13 1
    19   10   11 ar
    20   11   12 ar
    21   13   18 ar
    22   13   14 ar
    23   14   15 ar
    24   14   40 1
    25   15   16 ar
    26   15   41 1
    27   16   17 ar
    28   16   19 1
    29   17   18 ar
    30   17   42 1
    31   18   43 1
    32   19   20 1
    33   19   44 1
    34   19   45 1
    35   20   21 1
    36   20   46 1
    37   21   22 1
    38   21   47 1
    39   21   48 1
    40   22   23 1
    41   22   49 1
    42   22   50 1
    43   23   27 1
    44   23   24 2
    45   24   25 1
    46   25   26 2
    47   26   27 1
    48   26   28 1
    49   28   51 1
    50   28   52 1
    51   29   34 ar
    52   29   30 ar
    53   30   31 ar
    54   30   53 1
    55   31   32 ar
    56   31   54 1
    57   32   33 ar
    58   32   55 1
    59   33   34 ar
    60   33   56 1
    61   34   57 1
@<TRIPOS>MOLECULE
CHEMBL252455
   58    62     0     0     0
SMALL
USER_CHARGES

@<TRIPOS>ATOM
      1 C1         -0.0225    1.8097    0.0120 C.3       1 <0>        -0.1489
      2 S1          0.0021   -0.0041    0.0020 S.3       1 <0>         0.0301
      3 C2         -1.7016   -0.4536    0.0159 C.ar      1 <0>         0.3271
      4 N1         -2.6174    0.5141    0.0243 N.ar      1 <0>        -0.5276
      5 C3         -3.9053    0.2400    0.0344 C.ar      1 <0>         0.2400
      6 C4         -4.3044   -1.1092    0.0361 C.ar      1 <0>        -0.2284
      7 C5         -5.6573   -1.4815    0.0460 C.ar      1 <0>         0.0087
      8 C6         -5.9597   -2.8353    0.0465 C.ar      1 <0>        -0.1083
      9 C7         -4.9101   -3.7806    0.0372 C.ar      1 <0>         0.2459
     10 N2         -3.6450   -3.4035    0.0283 N.ar      1 <0>        -0.4556
     11 C8         -3.3020   -2.1154    0.0269 C.ar      1 <0>         0.3661
     12 N3         -2.0179   -1.7350    0.0120 N.ar      1 <0>        -0.4845
     13 C9         -5.2358   -5.2255    0.0378 C.ar      1 <0>        -0.0177
     14 C10        -6.3516   -5.6914    0.7329 C.ar      1 <0>        -0.0773
     15 C11        -6.6501   -7.0385    0.7294 C.ar      1 <0>        -0.0953
     16 C12        -5.8450   -7.9265    0.0386 C.ar      1 <0>        -0.1527
     17 C13        -4.7366   -7.4705   -0.6524 C.ar      1 <0>        -0.0962
     18 C14        -4.4313   -6.1249   -0.6615 C.ar      1 <0>        -0.0706
     19 C15        -6.1764   -9.3966    0.0392 C.3       1 <0>         0.0456
     20 N4         -7.0625   -9.6993   -1.0927 N.4       1 <0>        -0.5077
     21 C16        -7.3856  -11.1323   -1.0921 C.3       1 <0>        -0.0085
     22 C17        -8.3084  -11.4476   -2.2710 C.3       1 <0>        -0.0320
     23 C18        -8.6398  -12.9177   -2.2704 C.2       1 <0>        -0.0157
     24 N5         -9.6343  -13.5611   -1.6933 N.2       1 <0>        -0.2067
     25 N6         -9.7727  -14.8109   -1.7906 N.2       1 <0>        -0.3578
     26 C19        -8.9218  -15.5568   -2.4828 C.2       1 <0>         0.3632
     27 S2         -7.7990  -14.2870   -3.0602 S.3       1 <0>        -0.0301
     28 N7         -8.9085  -16.9264   -2.7011 N.pl3     1 <0>        -0.7699
     29 C20        -7.3718   -3.2860    0.0573 C.ar      1 <0>        -0.0514
     30 C21        -7.8088   -4.2401   -0.8605 C.ar      1 <0>        -0.0998
     31 C22        -9.1245   -4.6562   -0.8454 C.ar      1 <0>        -0.1199
     32 C23       -10.0092   -4.1282    0.0777 C.ar      1 <0>        -0.1085
     33 C24        -9.5813   -3.1812    0.9908 C.ar      1 <0>        -0.1116
     34 C25        -8.2666   -2.7617    0.9890 C.ar      1 <0>        -0.1033
     35 H1          1.0001    2.1870    0.0043 H         1 <0>         0.1178
     36 H2         -0.5497    2.1708   -0.8711 H         1 <0>         0.0934
     37 H3         -0.5327    2.1613    0.9088 H         1 <0>         0.0934
     38 H4         -4.6386    1.0328    0.0415 H         1 <0>         0.1881
     39 H5         -6.4393   -0.7367    0.0534 H         1 <0>         0.1579
     40 H6         -6.9805   -4.9992    1.2732 H         1 <0>         0.1446
     41 H7         -7.5139   -7.4005    1.2673 H         1 <0>         0.1373
     42 H8         -4.1117   -8.1686   -1.1895 H         1 <0>         0.1374
     43 H9         -3.5683   -5.7695   -1.2049 H         1 <0>         0.1437
     44 H10        -5.2579   -9.9762   -0.0533 H         1 <0>         0.1408
     45 H11        -6.6772   -9.6558    0.9721 H         1 <0>         0.1413
     46 H12        -7.9127   -9.1628   -1.0071 H         1 <0>         0.4301
     47 H13        -6.4671  -11.7119   -1.1846 H         1 <0>         0.1370
     48 H14        -7.8863  -11.3915   -0.1593 H         1 <0>         0.1418
     49 H15        -9.2269  -10.8680   -2.1785 H         1 <0>         0.1228
     50 H16        -7.8077  -11.1884   -3.2038 H         1 <0>         0.1127
     51 H17        -9.6013  -17.4856   -2.3160 H         1 <0>         0.4299
     52 H18        -8.2064  -17.3251   -3.2387 H         1 <0>         0.4297
     53 H19        -7.1192   -4.6525   -1.5821 H         1 <0>         0.1207
     54 H20        -9.4642   -5.3953   -1.5559 H         1 <0>         0.1241
     55 H21       -11.0381   -4.4564    0.0854 H         1 <0>         0.1271
     56 H22       -10.2765   -2.7723    1.7090 H         1 <0>         0.1305
     57 H23        -7.9325   -2.0256    1.7052 H         1 <0>         0.1282
     58 H24        -6.5989   -9.4594   -1.9562 H         1 <0>         0.4289
@<TRIPOS>BOND
     1    1    2 1
     2    1   35 1
     3    1   36 1
     4    1   37 1
     5    2    3 1
     6    3   12 ar
     7    3    4 ar
     8    4    5 ar
     9    5    6 ar
    10    5   38 1
    11    6   11 ar
    12    6    7 ar
    13    7    8 ar
    14    7   39 1
    15    8    9 ar
    16    8   29 1
    17    9   10 ar
    18    9   13 1
    19   10   11 ar
    20   11   12 ar
    21   13   18 ar
    22   13   14 ar
    23   14   15 ar
    24   14   40 1
    25   15   16 ar
    26   15   41 1
    27   16   17 ar
    28   16   19 1
    29   17   18 ar
    30   17   42 1
    31   18   43 1
    32   19   20 1
    33   19   44 1
    34   19   45 1
    35   20   21 1
    36   20   46 1
    37   20   58 1
    38   21   22 1
    39   21   47 1
    40   21   48 1
    41   22   23 1
    42   22   49 1
    43   22   50 1
    44   23   27 1
    45   23   24 2
    46   24   25 1
    47   25   26 2
    48   26   27 1
    49   26   28 1
    50   28   51 1
    51   28   52 1
    52   29   34 ar
    53   29   30 ar
    54   30   31 ar
    55   30   53 1
    56   31   32 ar
    57   31   54 1
    58   32   33 ar
    59   32   55 1
    60   33   34 ar
    61   33   56 1
    62   34   57 1
@<TRIPOS>MOLECULE
CHEMBL252456
   65    69     0     0     0
SMALL
USER_CHARGES

@<TRIPOS>ATOM
      1 C1         -0.2785    1.7018   -0.0944 C.3       1 <0>        -0.1489
      2 S1         -0.2235   -0.1114   -0.0922 S.3       1 <0>         0.0305
      3 C2          0.6571   -0.5093    1.3812 C.ar      1 <0>         0.3272
      4 N1          1.0807    0.4849    2.1603 N.ar      1 <0>        -0.5275
      5 C3          1.7433    0.2497    3.2737 C.ar      1 <0>         0.2401
      6 C4          2.0003   -1.0862    3.6324 C.ar      1 <0>        -0.2285
      7 C5          2.6993   -1.4177    4.8031 C.ar      1 <0>         0.0090
      8 C6          2.9073   -2.7611    5.0787 C.ar      1 <0>        -0.1089
      9 C7          2.4152   -3.7371    4.1838 C.ar      1 <0>         0.2461
     10 N2          1.7608   -3.3983    3.0886 N.ar      1 <0>        -0.4555
     11 C8          1.5346   -2.1216    2.7790 C.ar      1 <0>         0.3663
     12 N3          0.8652   -1.7803    1.6703 N.ar      1 <0>        -0.4845
     13 C9          2.6388   -5.1709    4.4804 C.ar      1 <0>        -0.0178
     14 C10         3.8166   -5.5815    5.1044 C.ar      1 <0>        -0.0772
     15 C11         4.0188   -6.9186    5.3786 C.ar      1 <0>        -0.0959
     16 C12         3.0564   -7.8513    5.0353 C.ar      1 <0>        -0.1525
     17 C13         1.8863   -7.4502    4.4158 C.ar      1 <0>        -0.0963
     18 C14         1.6697   -6.1153    4.1420 C.ar      1 <0>        -0.0702
     19 C15         3.2838   -9.3101    5.3371 C.3       1 <0>         0.0453
     20 N4          2.7585   -9.6214    6.6732 N.4       1 <0>        -0.5084
     21 C16         2.9802  -11.0435    6.9674 C.3       1 <0>        -0.0013
     22 C17         2.4331  -11.3677    8.3590 C.3       1 <0>        -0.1960
     23 C18         2.6605  -12.8266    8.6608 C.2       1 <0>         0.4201
     24 O1          3.2066  -13.5372    7.8431 O.2       1 <0>        -0.4727
     25 C19         2.2217  -13.3872    9.9429 C.ar      1 <0>        -0.2802
     26 C20         1.7009  -12.5500   10.9376 C.ar      1 <0>        -0.0268
     27 C21         1.2908  -13.0836   12.1380 C.ar      1 <0>        -0.1913
     28 C22         1.3898  -14.4475   12.3700 C.ar      1 <0>        -0.0218
     29 C23         1.9002  -15.2869   11.4018 C.ar      1 <0>        -0.2130
     30 C24         2.3154  -14.7705   10.1804 C.ar      1 <0>         0.2904
     31 N5          2.8236  -15.6132    9.2031 N.pl3     1 <0>        -0.8495
     32 C25         3.6398   -3.1691    6.3011 C.ar      1 <0>        -0.0507
     33 C26         3.1032   -4.1379    7.1479 C.ar      1 <0>        -0.0998
     34 C27         3.7900   -4.5140    8.2842 C.ar      1 <0>        -0.1202
     35 C28         5.0083   -3.9314    8.5840 C.ar      1 <0>        -0.1089
     36 C29         5.5457   -2.9695    7.7475 C.ar      1 <0>        -0.1115
     37 C30         4.8708   -2.5896    6.6053 C.ar      1 <0>        -0.1031
     38 H1          0.7376    2.0961   -0.1041 H         1 <0>         0.0934
     39 H2         -0.8110    2.0480   -0.9802 H         1 <0>         0.1178
     40 H3         -0.7951    2.0507    0.7997 H         1 <0>         0.0934
     41 H4          2.0820    1.0639    3.8973 H         1 <0>         0.1882
     42 H5          3.0646   -0.6500    5.4692 H         1 <0>         0.1579
     43 H6          4.5690   -4.8544    5.3722 H         1 <0>         0.1446
     44 H7          4.9305   -7.2378    5.8617 H         1 <0>         0.1365
     45 H8          1.1387   -8.1830    4.1499 H         1 <0>         0.1374
     46 H9          0.7539   -5.8028    3.6624 H         1 <0>         0.1440
     47 H10         2.7699   -9.9194    4.5936 H         1 <0>         0.1410
     48 H11         4.3520   -9.5251    5.3075 H         1 <0>         0.1407
     49 H12         3.2343   -9.0575    7.3614 H         1 <0>         0.4275
     50 H13         2.4663  -11.6528    6.2239 H         1 <0>         0.1399
     51 H14         4.0484  -11.2584    6.9378 H         1 <0>         0.1400
     52 H15         2.9470  -10.7585    9.1024 H         1 <0>         0.1230
     53 H16         1.3649  -11.1528    8.3885 H         1 <0>         0.1236
     54 H17         1.6216  -11.4871   10.7629 H         1 <0>         0.1262
     55 H18         0.8897  -12.4365   12.9040 H         1 <0>         0.1297
     56 H19         1.0652  -14.8552   13.3160 H         1 <0>         0.1327
     57 H20         1.9738  -16.3475   11.5919 H         1 <0>         0.1326
     58 H21         3.1882  -15.2422    8.3844 H         1 <0>         0.4141
     59 H22         2.8144  -16.5737    9.3383 H         1 <0>         0.4017
     60 H23         2.1518   -4.5929    6.9152 H         1 <0>         0.1206
     61 H24         3.3753   -5.2644    8.9410 H         1 <0>         0.1235
     62 H25         5.5419   -4.2283    9.4748 H         1 <0>         0.1269
     63 H26         6.4971   -2.5178    7.9868 H         1 <0>         0.1306
     64 H27         5.2934   -1.8418    5.9506 H         1 <0>         0.1284
     65 H28         1.7697   -9.4225    6.7006 H         1 <0>         0.4281
@<TRIPOS>BOND
     1    1    2 1
     2    1   38 1
     3    1   39 1
     4    1   40 1
     5    2    3 1
     6    3   12 ar
     7    3    4 ar
     8    4    5 ar
     9    5    6 ar
    10    5   41 1
    11    6   11 ar
    12    6    7 ar
    13    7    8 ar
    14    7   42 1
    15    8    9 ar
    16    8   32 1
    17    9   10 ar
    18    9   13 1
    19   10   11 ar
    20   11   12 ar
    21   13   18 ar
    22   13   14 ar
    23   14   15 ar
    24   14   43 1
    25   15   16 ar
    26   15   44 1
    27   16   17 ar
    28   16   19 1
    29   17   18 ar
    30   17   45 1
    31   18   46 1
    32   19   20 1
    33   19   47 1
    34   19   48 1
    35   20   21 1
    36   20   49 1
    37   20   65 1
    38   21   22 1
    39   21   50 1
    40   21   51 1
    41   22   23 1
    42   22   52 1
    43   22   53 1
    44   23   24 2
    45   23   25 1
    46   25   30 ar
    47   25   26 ar
    48   26   27 ar
    49   26   54 1
    50   27   28 ar
    51   27   55 1
    52   28   29 ar
    53   28   56 1
    54   29   30 ar
    55   29   57 1
    56   30   31 1
    57   31   58 1
    58   31   59 1
    59   32   37 ar
    60   32   33 ar
    61   33   34 ar
    62   33   60 1
    63   34   35 ar
    64   34   61 1
    65   35   36 ar
    66   35   62 1
    67   36   37 ar
    68   36   63 1
    69   37   64 1
@<TRIPOS>MOLECULE
CHEMBL252457
   62    66     0     0     0
SMALL
USER_CHARGES

@<TRIPOS>ATOM
      1 C1         -0.0225    1.8097    0.0120 C.3       1 <0>        -0.1489
      2 S1          0.0021   -0.0041    0.0020 S.3       1 <0>         0.0302
      3 C2         -1.7016   -0.4536    0.0159 C.ar      1 <0>         0.3272
      4 N1         -2.6174    0.5141    0.0243 N.ar      1 <0>        -0.5276
      5 C3         -3.9053    0.2400    0.0344 C.ar      1 <0>         0.2401
      6 C4         -4.3044   -1.1092    0.0361 C.ar      1 <0>        -0.2285
      7 C5         -5.6573   -1.4815    0.0460 C.ar      1 <0>         0.0089
      8 C6         -5.9597   -2.8353    0.0465 C.ar      1 <0>        -0.1088
      9 C7         -4.9101   -3.7806    0.0372 C.ar      1 <0>         0.2466
     10 N2         -3.6450   -3.4035    0.0283 N.ar      1 <0>        -0.4557
     11 C8         -3.3020   -2.1154    0.0269 C.ar      1 <0>         0.3663
     12 N3         -2.0179   -1.7350    0.0120 N.ar      1 <0>        -0.4844
     13 C9         -5.2358   -5.2255    0.0378 C.ar      1 <0>        -0.0194
     14 C10        -6.3516   -5.6914    0.7329 C.ar      1 <0>        -0.0759
     15 C11        -6.6501   -7.0385    0.7294 C.ar      1 <0>        -0.1015
     16 C12        -5.8450   -7.9265    0.0386 C.ar      1 <0>        -0.1466
     17 C13        -4.7366   -7.4705   -0.6524 C.ar      1 <0>        -0.0971
     18 C14        -4.4313   -6.1249   -0.6615 C.ar      1 <0>        -0.0683
     19 C15        -6.1764   -9.3966    0.0392 C.3       1 <0>         0.0430
     20 N4         -7.0625   -9.6993   -1.0927 N.4       1 <0>        -0.3836
     21 C16        -8.3422   -9.0041   -0.9099 C.3       1 <0>        -0.0141
     22 C17        -9.2390   -9.2504   -2.1250 C.3       1 <0>        -0.1268
     23 C18        -9.4895  -10.7541   -2.2712 C.3       1 <0>        -0.1235
     24 C19        -8.1443  -11.4769   -2.3866 C.3       1 <0>        -0.1402
     25 C20        -7.2881  -11.1480   -1.1617 C.3       1 <0>        -0.0040
     26 C21       -10.3073  -11.0106   -3.5108 C.2       1 <0>         0.5200
     27 O1        -10.6563  -10.0829   -4.2097 O.2       1 <0>        -0.5284
     28 N5        -10.6508  -12.2709   -3.8427 N.am      1 <0>        -0.8497
     29 C22        -7.3718   -3.2860    0.0573 C.ar      1 <0>        -0.0505
     30 C23        -7.8088   -4.2401   -0.8605 C.ar      1 <0>        -0.0998
     31 C24        -9.1245   -4.6562   -0.8454 C.ar      1 <0>        -0.1210
     32 C25       -10.0092   -4.1282    0.0777 C.ar      1 <0>        -0.1084
     33 C26        -9.5813   -3.1812    0.9908 C.ar      1 <0>        -0.1115
     34 C27        -8.2666   -2.7617    0.9890 C.ar      1 <0>        -0.1030
     35 H1          1.0001    2.1870    0.0043 H         1 <0>         0.1178
     36 H2         -0.5497    2.1708   -0.8711 H         1 <0>         0.0934
     37 H3         -0.5327    2.1613    0.9088 H         1 <0>         0.0934
     38 H4         -4.6386    1.0328    0.0415 H         1 <0>         0.1881
     39 H5         -6.4393   -0.7367    0.0534 H         1 <0>         0.1578
     40 H6         -6.9805   -4.9992    1.2732 H         1 <0>         0.1448
     41 H7         -7.5139   -7.4005    1.2673 H         1 <0>         0.1360
     42 H8         -4.1117   -8.1686   -1.1895 H         1 <0>         0.1370
     43 H9         -3.5683   -5.7695   -1.2049 H         1 <0>         0.1439
     44 H10        -5.2579   -9.9762   -0.0533 H         1 <0>         0.1397
     45 H11        -6.6772   -9.6558    0.9721 H         1 <0>         0.1378
     46 H12        -8.8347   -9.3802   -0.0132 H         1 <0>         0.1312
     47 H13        -8.1621   -7.9344   -0.8028 H         1 <0>         0.1375
     48 H14       -10.1894   -8.7349   -1.9866 H         1 <0>         0.1196
     49 H15        -8.7475   -8.8744   -3.0223 H         1 <0>         0.0974
     50 H16       -10.0265  -11.1209   -1.3965 H         1 <0>         0.1175
     51 H17        -8.3122  -12.5528   -2.4351 H         1 <0>         0.1174
     52 H18        -7.6301  -11.1471   -3.2893 H         1 <0>         0.0959
     53 H19        -6.3297  -11.6612   -1.2406 H         1 <0>         0.1368
     54 H20        -7.8031  -11.4785   -0.2597 H         1 <0>         0.1333
     55 H21       -10.3717  -13.0129   -3.2837 H         1 <0>         0.4032
     56 H22       -11.1772  -12.4360   -4.6405 H         1 <0>         0.4118
     57 H23        -7.1192   -4.6525   -1.5821 H         1 <0>         0.1207
     58 H24        -9.4642   -5.3953   -1.5559 H         1 <0>         0.1240
     59 H25       -11.0381   -4.4564    0.0854 H         1 <0>         0.1269
     60 H26       -10.2765   -2.7723    1.7090 H         1 <0>         0.1304
     61 H27        -7.9325   -2.0256    1.7052 H         1 <0>         0.1282
     62 H28        -6.6312   -9.3859   -1.9493 H         1 <0>         0.4237
@<TRIPOS>BOND
     1    1    2 1
     2    1   35 1
     3    1   36 1
     4    1   37 1
     5    2    3 1
     6    3   12 ar
     7    3    4 ar
     8    4    5 ar
     9    5    6 ar
    10    5   38 1
    11    6   11 ar
    12    6    7 ar
    13    7    8 ar
    14    7   39 1
    15    8    9 ar
    16    8   29 1
    17    9   10 ar
    18    9   13 1
    19   10   11 ar
    20   11   12 ar
    21   13   18 ar
    22   13   14 ar
    23   14   15 ar
    24   14   40 1
    25   15   16 ar
    26   15   41 1
    27   16   17 ar
    28   16   19 1
    29   17   18 ar
    30   17   42 1
    31   18   43 1
    32   19   20 1
    33   19   44 1
    34   19   45 1
    35   20   25 1
    36   20   21 1
    37   20   62 1
    38   21   22 1
    39   21   46 1
    40   21   47 1
    41   22   23 1
    42   22   48 1
    43   22   49 1
    44   23   24 1
    45   23   26 1
    46   23   50 1
    47   24   25 1
    48   24   51 1
    49   24   52 1
    50   25   53 1
    51   25   54 1
    52   26   27 2
    53   26   28 am
    54   28   55 1
    55   28   56 1
    56   29   34 ar
    57   29   30 ar
    58   30   31 ar
    59   30   57 1
    60   31   32 ar
    61   31   58 1
    62   32   33 ar
    63   32   59 1
    64   33   34 ar
    65   33   60 1
    66   34   61 1
@<TRIPOS>MOLECULE
CHEMBL401622
   72    78     0     0     0
SMALL
USER_CHARGES

@<TRIPOS>ATOM
      1 C1         -0.0178    1.4608    0.0101 C.3       1 <0>         0.1141
      2 N1          0.0021   -0.0041    0.0020 N.pl3     1 <0>        -0.3829
      3 C2          0.0076   -0.7892   -1.1195 C.ar      1 <0>         0.3421
      4 C3          0.0278   -2.1277   -0.6743 C.ar      1 <0>        -0.2325
      5 C4          0.0372   -3.1663   -1.6092 C.ar      1 <0>         0.0318
      6 C5          0.0261   -2.8327   -2.9588 C.ar      1 <0>        -0.1441
      7 C6          0.0060   -1.4737   -3.3293 C.ar      1 <0>         0.2366
      8 N2         -0.0021   -0.5163   -2.4177 N.ar      1 <0>        -0.4921
      9 C7         -0.0054   -1.1111   -4.7657 C.ar      1 <0>        -0.0072
     10 C8          0.6881   -1.8915   -5.6903 C.ar      1 <0>        -0.0794
     11 C9          0.6738   -1.5487   -7.0268 C.ar      1 <0>        -0.1009
     12 C10        -0.0263   -0.4332   -7.4502 C.ar      1 <0>        -0.1518
     13 C11        -0.7159    0.3451   -6.5377 C.ar      1 <0>        -0.0965
     14 C12        -0.7145    0.0086   -5.1994 C.ar      1 <0>        -0.0750
     15 C13        -0.0375   -0.0640   -8.9112 C.3       1 <0>         0.0438
     16 N3         -1.1700   -0.7241   -9.5744 N.4       1 <0>        -0.3850
     17 C14        -0.9784   -2.1788   -9.5342 C.3       1 <0>        -0.0069
     18 C15        -2.1936   -2.8743  -10.1515 C.3       1 <0>        -0.1646
     19 C16        -2.3521   -2.4187  -11.6049 C.3       1 <0>         0.1609
     20 C17        -2.4766   -0.8927  -11.6405 C.3       1 <0>        -0.1668
     21 C18        -1.2509   -0.2706  -10.9681 C.3       1 <0>         0.0010
     22 N4         -3.5574   -3.0220  -12.1789 N.am      1 <0>        -0.5372
     23 C19        -3.5979   -3.8697  -13.2834 C.ar      1 <0>         0.0797
     24 C20        -2.6233   -4.3795  -14.1278 C.ar      1 <0>        -0.1044
     25 C21        -2.9823   -5.2189  -15.1640 C.ar      1 <0>        -0.1029
     26 C22        -4.3109   -5.5531  -15.3635 C.ar      1 <0>        -0.0991
     27 C23        -5.2886   -5.0500  -14.5279 C.ar      1 <0>        -0.1001
     28 C24        -4.9378   -4.2071  -13.4842 C.ar      1 <0>         0.0916
     29 N5         -5.6699   -3.5541  -12.4955 N.am      1 <0>        -0.6395
     30 H1         -6.6319   -3.5978  -12.3793 H         1 <0>         0.4396
     31 C25        -4.8141   -2.8564  -11.7251 C.2       1 <0>         0.6856
     32 O1         -5.1290   -2.1764  -10.7663 O.2       1 <0>        -0.5576
     33 C26         0.0358   -3.8934   -3.9946 C.ar      1 <0>        -0.0339
     34 C27        -0.8896   -3.8622   -5.0367 C.ar      1 <0>        -0.1043
     35 C28        -0.8755   -4.8519   -5.9982 C.ar      1 <0>        -0.1215
     36 C29         0.0545   -5.8736   -5.9295 C.ar      1 <0>        -0.1151
     37 C30         0.9750   -5.9100   -4.8975 C.ar      1 <0>        -0.1114
     38 C31         0.9741   -4.9225   -3.9334 C.ar      1 <0>        -0.1084
     39 C32         0.0338   -2.0770    0.7883 C.2       1 <0>         0.3726
     40 N6          0.0244   -0.8181    1.1382 N.2       1 <0>        -0.3019
     41 N7          0.0523   -3.1742    1.6526 N.pl3     1 <0>        -0.8274
     42 H2          1.0048    1.8381    0.0023 H         1 <0>         0.0724
     43 H3         -0.5450    1.8219   -0.8730 H         1 <0>         0.0887
     44 H4         -0.5280    1.8123    0.9069 H         1 <0>         0.0914
     45 H5          0.0530   -4.1986   -1.2924 H         1 <0>         0.1440
     46 H6          1.2356   -2.7622   -5.3608 H         1 <0>         0.1442
     47 H7          1.2105   -2.1523   -7.7438 H         1 <0>         0.1343
     48 H8         -1.2601    1.2152   -6.8740 H         1 <0>         0.1349
     49 H9         -1.2571    0.6142   -4.4886 H         1 <0>         0.1410
     50 H10        -0.1370    1.0167   -9.0122 H         1 <0>         0.1393
     51 H11         0.8942   -0.3880   -9.3750 H         1 <0>         0.1375
     52 H12        -0.0839   -2.4427  -10.0984 H         1 <0>         0.1325
     53 H13        -0.8626   -2.5011   -8.4995 H         1 <0>         0.1397
     54 H14        -2.0486   -3.9542  -10.1224 H         1 <0>         0.1167
     55 H15        -3.0888   -2.6113   -9.5879 H         1 <0>         0.1069
     56 H16        -1.4793   -2.7267  -12.1807 H         1 <0>         0.1149
     57 H17        -2.5339   -0.5563  -12.6757 H         1 <0>         0.1178
     58 H18        -3.3776   -0.5886  -11.1078 H         1 <0>         0.1074
     59 H19        -1.3362    0.8158  -10.9918 H         1 <0>         0.1384
     60 H20        -0.3505   -0.5752  -11.5016 H         1 <0>         0.1333
     61 H21        -1.5860   -4.1204  -13.9757 H         1 <0>         0.1289
     62 H22        -2.2233   -5.6160  -15.8219 H         1 <0>         0.1386
     63 H23        -4.5839   -6.2099  -16.1762 H         1 <0>         0.1398
     64 H24        -6.3241   -5.3123  -14.6870 H         1 <0>         0.1366
     65 H25        -1.6163   -3.0652   -5.0911 H         1 <0>         0.1190
     66 H26        -1.5922   -4.8290   -6.8058 H         1 <0>         0.1198
     67 H27         0.0618   -6.6461   -6.6842 H         1 <0>         0.1240
     68 H28         1.6983   -6.7105   -4.8484 H         1 <0>         0.1280
     69 H29         1.6962   -4.9492   -3.1308 H         1 <0>         0.1265
     70 H30         0.0625   -4.0750    1.2927 H         1 <0>         0.4145
     71 H31         0.0548   -3.0354    2.6126 H         1 <0>         0.4137
     72 H32        -2.0249   -0.4861   -9.0942 H         1 <0>         0.4261
@<TRIPOS>BOND
     1    1    2 1
     2    1   42 1
     3    1   43 1
     4    1   44 1
     5    2   40 1
     6    2    3 1
     7    3    8 ar
     8    3    4 ar
     9    4    5 ar
    10    4   39 1
    11    5    6 ar
    12    5   45 1
    13    6    7 ar
    14    6   33 1
    15    7    8 ar
    16    7    9 1
    17    9   14 ar
    18    9   10 ar
    19   10   11 ar
    20   10   46 1
    21   11   12 ar
    22   11   47 1
    23   12   13 ar
    24   12   15 1
    25   13   14 ar
    26   13   48 1
    27   14   49 1
    28   15   16 1
    29   15   50 1
    30   15   51 1
    31   16   21 1
    32   16   17 1
    33   16   72 1
    34   17   18 1
    35   17   52 1
    36   17   53 1
    37   18   19 1
    38   18   54 1
    39   18   55 1
    40   19   20 1
    41   19   22 1
    42   19   56 1
    43   20   21 1
    44   20   57 1
    45   20   58 1
    46   21   59 1
    47   21   60 1
    48   22   31 am
    49   22   23 1
    50   23   28 ar
    51   23   24 ar
    52   24   25 ar
    53   24   61 1
    54   25   26 ar
    55   25   62 1
    56   26   27 ar
    57   26   63 1
    58   27   28 ar
    59   27   64 1
    60   28   29 1
    61   29   30 1
    62   29   31 am
    63   31   32 2
    64   33   38 ar
    65   33   34 ar
    66   34   35 ar
    67   34   65 1
    68   35   36 ar
    69   35   66 1
    70   36   37 ar
    71   36   67 1
    72   37   38 ar
    73   37   68 1
    74   38   69 1
    75   39   40 2
    76   39   41 1
    77   41   70 1
    78   41   71 1
@<TRIPOS>MOLECULE
CHEMBL252856
   71    76     0     0     0
SMALL
USER_CHARGES

@<TRIPOS>ATOM
      1 C1          0.0103    1.8098    0.0503 C.3       1 <0>        -0.1489
      2 S1          0.0357   -0.0040    0.0412 S.3       1 <0>         0.0304
      3 C2          0.8745   -0.4111   -1.4540 C.ar      1 <0>         0.3274
      4 N1          1.3052    0.5789   -2.2345 N.ar      1 <0>        -0.5275
      5 C3          1.9387    0.3369   -3.3633 C.ar      1 <0>         0.2402
      6 C4          2.1564   -1.0019   -3.7371 C.ar      1 <0>        -0.2285
      7 C5          2.8236   -1.3406   -4.9241 C.ar      1 <0>         0.0092
      8 C6          2.9945   -2.6864   -5.2134 C.ar      1 <0>        -0.1092
      9 C7          2.4979   -3.6574   -4.3158 C.ar      1 <0>         0.2462
     10 N2          1.8731   -3.3118   -3.2054 N.ar      1 <0>        -0.4556
     11 C8          1.6839   -2.0327   -2.8817 C.ar      1 <0>         0.3664
     12 N3          1.0549   -1.6842   -1.7518 N.ar      1 <0>        -0.4846
     13 C9          2.6817   -5.0937   -4.6272 C.ar      1 <0>        -0.0187
     14 C10         2.6379   -5.5347   -5.9496 C.ar      1 <0>        -0.0759
     15 C11         2.8103   -6.8739   -6.2334 C.ar      1 <0>        -0.1016
     16 C12         3.0258   -7.7788   -5.2093 C.ar      1 <0>        -0.1473
     17 C13         3.0698   -7.3476   -3.8955 C.ar      1 <0>        -0.0969
     18 C14         2.9051   -6.0100   -3.5996 C.ar      1 <0>        -0.0683
     19 C15         3.2128   -9.2402   -5.5261 C.3       1 <0>         0.0431
     20 N4          4.6396   -9.5160   -5.7407 N.4       1 <0>        -0.3840
     21 C16         5.1035   -8.7900   -6.9290 C.3       1 <0>        -0.0140
     22 C17         6.6071   -9.0089   -7.1106 C.3       1 <0>        -0.1267
     23 C18         6.8821  -10.5053   -7.2850 C.3       1 <0>        -0.1192
     24 C19         6.3276  -11.2608   -6.0738 C.3       1 <0>        -0.1425
     25 C20         4.8344  -10.9584   -5.9307 C.3       1 <0>        -0.0034
     26 C21         8.3678  -10.7362   -7.3861 C.2       1 <0>         0.5182
     27 O1          9.1330   -9.7972   -7.3248 O.2       1 <0>        -0.5008
     28 N5          8.8463  -11.9861   -7.5446 N.am      1 <0>        -0.6659
     29 C22        10.2134  -12.1909   -7.7357 C.ar      1 <0>         0.1752
     30 C23        11.1535  -11.3844   -7.0962 C.ar      1 <0>        -0.1745
     31 C24        12.4956  -11.6194   -7.3116 C.ar      1 <0>         0.1205
     32 N6         12.8924  -12.5921   -8.1103 N.ar      1 <0>        -0.4880
     33 C25        12.0336  -13.3768   -8.7335 C.ar      1 <0>         0.1224
     34 C26        10.6743  -13.2109   -8.5665 C.ar      1 <0>        -0.1964
     35 C27         3.6916   -3.1019   -6.4539 C.ar      1 <0>        -0.0503
     36 C28         4.7205   -4.0410   -6.3973 C.ar      1 <0>        -0.0999
     37 C29         5.3655   -4.4243   -7.5555 C.ar      1 <0>        -0.1211
     38 C30         4.9934   -3.8784   -8.7708 C.ar      1 <0>        -0.1085
     39 C31         3.9733   -2.9461   -8.8331 C.ar      1 <0>        -0.1113
     40 C32         3.3171   -2.5594   -7.6823 C.ar      1 <0>        -0.1029
     41 H1          1.0326    2.1875    0.0370 H         1 <0>         0.0935
     42 H2         -0.5217    2.1701   -0.8303 H         1 <0>         0.0935
     43 H3         -0.4954    2.1615    0.9495 H         1 <0>         0.1179
     44 H4          2.2830    1.1477   -3.9882 H         1 <0>         0.1882
     45 H5          3.1926   -0.5766   -5.5924 H         1 <0>         0.1579
     46 H6          2.4690   -4.8293   -6.7499 H         1 <0>         0.1449
     47 H7          2.7766   -7.2166   -7.2571 H         1 <0>         0.1360
     48 H8          3.2381   -8.0587   -3.1003 H         1 <0>         0.1370
     49 H9          2.9441   -5.6739   -2.5739 H         1 <0>         0.1441
     50 H10         2.8475   -9.8420   -4.6940 H         1 <0>         0.1401
     51 H11         2.6547   -9.4907   -6.4282 H         1 <0>         0.1381
     52 H12         4.5745   -9.1575   -7.8083 H         1 <0>         0.1321
     53 H13         4.9042   -7.7256   -6.8048 H         1 <0>         0.1388
     54 H14         6.9492   -8.4705   -7.9944 H         1 <0>         0.1210
     55 H15         7.1371   -8.6414   -6.2319 H         1 <0>         0.0989
     56 H16         6.3940  -10.8623   -8.1919 H         1 <0>         0.1216
     57 H17         6.4700  -12.3319   -6.2166 H         1 <0>         0.1176
     58 H18         6.8519  -10.9400   -5.1736 H         1 <0>         0.0978
     59 H19         4.4365  -11.4949   -5.0694 H         1 <0>         0.1382
     60 H20         4.3112  -11.2797   -6.8313 H         1 <0>         0.1344
     61 H21         8.2404  -12.7434   -7.5258 H         1 <0>         0.4143
     62 H22        10.8355  -10.5865   -6.4416 H         1 <0>         0.1474
     63 H23        13.2310  -10.9993   -6.8206 H         1 <0>         0.1626
     64 H24        12.3996  -14.1616   -9.3788 H         1 <0>         0.1641
     65 H25         9.9769  -13.8595   -9.0758 H         1 <0>         0.1396
     66 H26         5.0123   -4.4673   -5.4489 H         1 <0>         0.1206
     67 H27         6.1627   -5.1517   -7.5129 H         1 <0>         0.1236
     68 H28         5.5015   -4.1808   -9.6745 H         1 <0>         0.1267
     69 H29         3.6872   -2.5230   -9.7847 H         1 <0>         0.1305
     70 H30         2.5178   -1.8348   -7.7327 H         1 <0>         0.1284
     71 H31         5.1651   -9.2099   -4.9356 H         1 <0>         0.4240
@<TRIPOS>BOND
     1    1    2 1
     2    1   41 1
     3    1   42 1
     4    1   43 1
     5    2    3 1
     6    3   12 ar
     7    3    4 ar
     8    4    5 ar
     9    5    6 ar
    10    5   44 1
    11    6   11 ar
    12    6    7 ar
    13    7    8 ar
    14    7   45 1
    15    8    9 ar
    16    8   35 1
    17    9   10 ar
    18    9   13 1
    19   10   11 ar
    20   11   12 ar
    21   13   18 ar
    22   13   14 ar
    23   14   15 ar
    24   14   46 1
    25   15   16 ar
    26   15   47 1
    27   16   17 ar
    28   16   19 1
    29   17   18 ar
    30   17   48 1
    31   18   49 1
    32   19   20 1
    33   19   50 1
    34   19   51 1
    35   20   25 1
    36   20   21 1
    37   20   71 1
    38   21   22 1
    39   21   52 1
    40   21   53 1
    41   22   23 1
    42   22   54 1
    43   22   55 1
    44   23   24 1
    45   23   26 1
    46   23   56 1
    47   24   25 1
    48   24   57 1
    49   24   58 1
    50   25   59 1
    51   25   60 1
    52   26   27 2
    53   26   28 am
    54   28   29 1
    55   28   61 1
    56   29   34 ar
    57   29   30 ar
    58   30   31 ar
    59   30   62 1
    60   31   32 ar
    61   31   63 1
    62   32   33 ar
    63   33   34 ar
    64   33   64 1
    65   34   65 1
    66   35   40 ar
    67   35   36 ar
    68   36   37 ar
    69   36   66 1
    70   37   38 ar
    71   37   67 1
    72   38   39 ar
    73   38   68 1
    74   39   40 ar
    75   39   69 1
    76   40   70 1
@<TRIPOS>MOLECULE
CHEMBL409503
   47    50     0     0     0
SMALL
USER_CHARGES

@<TRIPOS>ATOM
      1 C1         -0.2535   -3.1530    0.5538 C.ar      1 <0>        -0.1276
      2 C2         -0.2982   -4.4327    1.0742 C.ar      1 <0>        -0.0997
      3 C3         -1.4594   -4.8990    1.6643 C.ar      1 <0>        -0.0304
      4 C4         -2.5753   -4.0841    1.7330 C.ar      1 <0>        -0.0934
      5 C5         -2.5294   -2.8046    1.2123 C.ar      1 <0>        -0.0958
      6 C6         -1.3689   -2.3392    0.6228 C.ar      1 <0>        -0.0934
      7 C7         -1.3193   -0.9438    0.0556 C.3       1 <0>        -0.0927
      8 C8         -1.6704   -0.9856   -1.4329 C.3       1 <0>        -0.0765
      9 C9         -1.6217    0.4317   -2.0083 C.3       1 <0>        -0.1388
     10 C10        -2.6074    1.3223   -1.2455 C.3       1 <0>         0.1007
     11 N1         -3.9375    0.6994   -1.2873 N.pl3     1 <0>        -0.5843
     12 C11        -4.0797   -0.6933   -0.8416 C.3       1 <0>         0.1143
     13 C12        -3.0774   -1.5614   -1.6090 C.3       1 <0>        -0.1237
     14 C13        -5.0356    1.4113   -1.7376 C.ar      1 <0>         0.5036
     15 C14        -4.9299    2.7791   -2.0431 C.ar      1 <0>        -0.1064
     16 C15        -6.0790    3.4481   -2.4965 C.ar      1 <0>         0.3038
     17 N2         -5.6984    4.7479   -2.7154 N.pl3     1 <0>        -0.5765
     18 H1         -6.2669    5.4667   -3.0332 H         1 <0>         0.4359
     19 C16        -4.3749    4.8441   -2.4035 C.2       1 <0>         0.2651
     20 N3         -3.9259    3.6879   -2.0094 N.2       1 <0>        -0.4748
     21 N4         -7.2153    2.7695   -2.6196 N.ar      1 <0>        -0.5536
     22 C17        -7.2673    1.4885   -2.3219 C.ar      1 <0>         0.3685
     23 N5         -6.2130    0.8162   -1.8965 N.ar      1 <0>        -0.5874
     24 C18        -0.6621   -1.8695   -2.1698 C.3       1 <0>        -0.0081
     25 N6          0.6872   -1.3111   -2.0100 N.4       1 <0>        -0.6413
     26 Cl1        -1.5165   -6.5064    2.3176 Cl        1 <0>        -0.0485
     27 H2          0.6543   -2.7873    0.0972 H         1 <0>         0.1108
     28 H3          0.5731   -5.0685    1.0199 H         1 <0>         0.1393
     29 H4         -3.4822   -4.4477    2.1932 H         1 <0>         0.1425
     30 H5         -3.4005   -2.1684    1.2656 H         1 <0>         0.1384
     31 H6         -2.0364   -0.3126    0.5805 H         1 <0>         0.1072
     32 H7         -0.3163   -0.5360    0.1811 H         1 <0>         0.0736
     33 H8         -0.6134    0.8323   -1.9037 H         1 <0>         0.0723
     34 H9         -1.8958    0.4058   -3.0629 H         1 <0>         0.0878
     35 H10        -2.2833    1.4224   -0.2096 H         1 <0>         0.0725
     36 H11        -2.6495    2.3055   -1.7140 H         1 <0>         0.1384
     37 H12        -3.8756   -0.7576    0.2272 H         1 <0>         0.0713
     38 H13        -5.0931   -1.0400   -1.0437 H         1 <0>         0.1118
     39 H14        -3.3378   -1.5685   -2.6674 H         1 <0>         0.0830
     40 H15        -3.1053   -2.5793   -1.2201 H         1 <0>         0.0919
     41 H16        -3.7858    5.7466   -2.4733 H         1 <0>         0.2288
     42 H17        -8.2064    0.9668   -2.4328 H         1 <0>         0.2082
     43 H18        -0.6901   -2.8768   -1.7542 H         1 <0>         0.1407
     44 H19        -0.9171   -1.9063   -3.2290 H         1 <0>         0.1405
     45 H20         1.3441   -1.8612   -2.5429 H         1 <0>         0.4396
     46 H21         0.6985   -0.3586   -2.3425 H         1 <0>         0.4338
     47 H22         0.9457   -1.3301   -1.0349 H         1 <0>         0.4286
@<TRIPOS>BOND
     1    1    6 ar
     2    1    2 ar
     3    1   27 1
     4    2    3 ar
     5    2   28 1
     6    3    4 ar
     7    3   26 1
     8    4    5 ar
     9    4   29 1
    10    5    6 ar
    11    5   30 1
    12    6    7 1
    13    7    8 1
    14    7   31 1
    15    7   32 1
    16    8   13 1
    17    8    9 1
    18    8   24 1
    19    9   10 1
    20    9   33 1
    21    9   34 1
    22   10   11 1
    23   10   35 1
    24   10   36 1
    25   11   12 1
    26   11   14 1
    27   12   13 1
    28   12   37 1
    29   12   38 1
    30   13   39 1
    31   13   40 1
    32   14   23 ar
    33   14   15 ar
    34   15   20 1
    35   15   16 ar
    36   16   17 1
    37   16   21 ar
    38   17   18 1
    39   17   19 1
    40   19   20 2
    41   19   41 1
    42   21   22 ar
    43   22   23 ar
    44   22   42 1
    45   24   25 1
    46   24   43 1
    47   24   44 1
    48   25   45 1
    49   25   46 1
    50   25   47 1
@<TRIPOS>MOLECULE
CHEMBL260463
   46    49     0     0     0
SMALL
USER_CHARGES

@<TRIPOS>ATOM
      1 C1          0.1373    1.2835   -0.1492 C.ar      1 <0>        -0.1059
      2 C2          1.3711    1.9007   -0.2350 C.ar      1 <0>        -0.1024
      3 C3          2.5256    1.1385   -0.2549 C.ar      1 <0>        -0.0234
      4 C4          2.4443   -0.2410   -0.1890 C.ar      1 <0>        -0.1023
      5 C5          1.2100   -0.8570   -0.1032 C.ar      1 <0>        -0.1009
      6 C6          0.0568   -0.0949   -0.0834 C.ar      1 <0>        -0.1242
      7 C7         -1.2887   -0.7672    0.0106 C.3       1 <0>        -0.0237
      8 C8         -1.9618   -0.3787    1.3290 C.3       1 <0>        -0.1210
      9 C9         -3.3434   -1.0359    1.4055 C.3       1 <0>         0.1379
     10 N1         -3.1896   -2.4840    1.2103 N.pl3     1 <0>        -0.6666
     11 C10        -2.4767   -2.9645    0.0187 C.3       1 <0>         0.1395
     12 C11        -1.1048   -2.2856   -0.0422 C.3       1 <0>        -0.1485
     13 C12        -3.7084   -3.3825    2.1356 C.ar      1 <0>         0.2458
     14 C13        -5.0020   -3.8786    2.0068 C.ar      1 <0>        -0.2060
     15 C14        -5.4816   -4.7708    2.9484 C.ar      1 <0>         0.1469
     16 N2         -4.7444   -5.1642    3.9667 N.ar      1 <0>        -0.4966
     17 C15        -3.5028   -4.7264    4.1439 C.ar      1 <0>         0.2923
     18 C16        -2.9417   -3.8224    3.2260 C.ar      1 <0>        -0.1573
     19 C17        -1.5828   -3.5501    3.6960 C.2       1 <0>        -0.1953
     20 C18        -1.4050   -4.2734    4.8126 C.2       1 <0>         0.0695
     21 N3         -2.5468   -4.9749    5.0988 N.pl3     1 <0>        -0.5811
     22 H1         -2.6595   -5.5686    5.8576 H         1 <0>         0.4239
     23 C19        -2.1654   -0.3189   -1.1604 C.3       1 <0>        -0.0089
     24 N4         -1.5102   -0.6736   -2.4265 N.4       1 <0>        -0.6377
     25 Cl1         4.0755    1.9129   -0.3633 Cl        1 <0>        -0.0455
     26 H2         -0.7637    1.8786   -0.1290 H         1 <0>         0.1358
     27 H3          1.4339    2.9776   -0.2867 H         1 <0>         0.1420
     28 H4          3.3452   -0.8365   -0.2049 H         1 <0>         0.1420
     29 H5          1.1464   -1.9339   -0.0521 H         1 <0>         0.1414
     30 H6         -1.3499   -0.7197    2.1642 H         1 <0>         0.0902
     31 H7         -2.0712    0.7048    1.3762 H         1 <0>         0.0842
     32 H8         -3.7858   -0.8440    2.3830 H         1 <0>         0.0845
     33 H9         -3.9857   -0.6282    0.6250 H         1 <0>         0.0560
     34 H10        -2.3473   -4.0449    0.0813 H         1 <0>         0.0858
     35 H11        -3.0484   -2.7140   -0.8749 H         1 <0>         0.0477
     36 H12        -0.6043   -2.5593   -0.9710 H         1 <0>         0.0701
     37 H13        -0.5011   -2.6086    0.8059 H         1 <0>         0.0999
     38 H14        -5.6251   -3.5698    1.1805 H         1 <0>         0.1362
     39 H15        -6.4860   -5.1545    2.8463 H         1 <0>         0.1643
     40 H16        -0.8611   -2.8936    3.2328 H         1 <0>         0.1430
     41 H17        -0.5007   -4.2920    5.4027 H         1 <0>         0.1791
     42 H18        -3.1336   -0.8160   -1.1006 H         1 <0>         0.1456
     43 H19        -2.3079    0.7608   -1.1151 H         1 <0>         0.1385
     44 H20        -0.5790   -0.2855   -2.4436 H         1 <0>         0.4331
     45 H21        -1.4576   -1.6779   -2.5081 H         1 <0>         0.4327
     46 H22        -2.0441   -0.3010   -3.1974 H         1 <0>         0.4391
@<TRIPOS>BOND
     1    1    6 ar
     2    1    2 ar
     3    1   26 1
     4    2    3 ar
     5    2   27 1
     6    3    4 ar
     7    3   25 1
     8    4    5 ar
     9    4   28 1
    10    5    6 ar
    11    5   29 1
    12    6    7 1
    13    7   12 1
    14    7    8 1
    15    7   23 1
    16    8    9 1
    17    8   30 1
    18    8   31 1
    19    9   10 1
    20    9   32 1
    21    9   33 1
    22   10   11 1
    23   10   13 1
    24   11   12 1
    25   11   34 1
    26   11   35 1
    27   12   36 1
    28   12   37 1
    29   13   18 ar
    30   13   14 ar
    31   14   15 ar
    32   14   38 1
    33   15   16 ar
    34   15   39 1
    35   16   17 ar
    36   17   21 1
    37   17   18 ar
    38   18   19 1
    39   19   20 2
    40   19   40 1
    41   20   21 1
    42   20   41 1
    43   21   22 1
    44   23   24 1
    45   23   42 1
    46   23   43 1
    47   24   44 1
    48   24   45 1
    49   24   46 1
@<TRIPOS>MOLECULE
CHEMBL512135
   45    48     0     0     0
SMALL
USER_CHARGES

@<TRIPOS>ATOM
      1 C1          0.1439    1.8302    0.7849 C.ar      1 <0>        -0.0946
      2 C2          1.3724    2.4573    0.6926 C.ar      1 <0>        -0.1093
      3 C3          2.5207    1.7066    0.5236 C.ar      1 <0>        -0.0939
      4 C4          2.4407    0.3287    0.4474 C.ar      1 <0>        -0.1238
      5 C5          1.2124   -0.2985    0.5407 C.ar      1 <0>        -0.1107
      6 C6          0.0639    0.4523    0.7082 C.ar      1 <0>        -0.1097
      7 C7          3.6925   -0.4897    0.2622 C.3       1 <0>         0.1718
      8 C8          3.8274   -0.8897   -1.2084 C.3       1 <0>        -0.0184
      9 N1          4.9805   -1.7857   -1.3684 N.4       1 <0>        -0.6348
     10 N2          3.6149   -1.6952    1.0910 N.am      1 <0>        -0.7319
     11 C9          4.7447   -2.3088    1.4955 C.2       1 <0>         0.6124
     12 O1          5.8294   -1.8614    1.1722 O.2       1 <0>        -0.5337
     13 C10         4.6670   -3.5149    2.3247 C.2       1 <0>        -0.2784
     14 C11         5.6990   -4.2837    2.8439 C.2       1 <0>        -0.0179
     15 C12         5.3858   -5.3785    3.5996 C.2       1 <0>        -0.1497
     16 C13         4.0486   -5.6776    3.8174 C.2       1 <0>        -0.0140
     17 S1          3.2206   -4.3671    2.9319 S.3       1 <0>         0.1735
     18 C14         3.4617   -6.7899    4.5875 C.ar      1 <0>         0.0345
     19 C15         3.9183   -7.0996    5.8722 C.ar      1 <0>        -0.1465
     20 C16         3.3398   -8.1507    6.5585 C.ar      1 <0>         0.1428
     21 N3          2.3688   -8.8703    6.0347 N.ar      1 <0>        -0.4752
     22 C17         1.8899   -8.6291    4.8212 C.ar      1 <0>         0.2905
     23 C18         2.4177   -7.5732    4.0557 C.ar      1 <0>        -0.1242
     24 C19         1.6796   -7.5708    2.7955 C.2       1 <0>        -0.2123
     25 C20         0.7853   -8.5719    2.8653 C.2       1 <0>         0.0883
     26 N4          0.9051   -9.2194    4.0652 N.pl3     1 <0>        -0.5766
     27 H1          0.3661   -9.9755    4.3457 H         1 <0>         0.4274
     28 Br1         6.7484   -6.4649    4.3336 Br        1 <0>         0.0020
     29 H2         -0.7528    2.4164    0.9214 H         1 <0>         0.1334
     30 H3          1.4349    3.5339    0.7521 H         1 <0>         0.1344
     31 H4          3.4804    2.1966    0.4508 H         1 <0>         0.1308
     32 H5          1.1498   -1.3751    0.4808 H         1 <0>         0.1215
     33 H6         -0.8958   -0.0377    0.7807 H         1 <0>         0.1331
     34 H7          4.5596    0.1003    0.5593 H         1 <0>         0.1278
     35 H8          2.9211   -1.4028   -1.5300 H         1 <0>         0.1396
     36 H9          3.9743    0.0034   -1.8158 H         1 <0>         0.1527
     37 H10         5.0694   -2.0495   -2.3382 H         1 <0>         0.4377
     38 H11         5.8194   -1.3107   -1.0707 H         1 <0>         0.4429
     39 H12         2.7504   -2.0518    1.3487 H         1 <0>         0.4155
     40 H13         6.7295   -4.0221    2.6544 H         1 <0>         0.1609
     41 H14         4.7138   -6.5246    6.3229 H         1 <0>         0.1470
     42 H15         3.6937   -8.3886    7.5508 H         1 <0>         0.1742
     43 H16         1.8242   -6.8940    1.9665 H         1 <0>         0.1488
     44 H17         0.0837   -8.8327    2.0866 H         1 <0>         0.1856
     45 H18         4.8445   -2.6124   -0.8061 H         1 <0>         0.4264
@<TRIPOS>BOND
     1    1    6 ar
     2    1    2 ar
     3    1   29 1
     4    2    3 ar
     5    2   30 1
     6    3    4 ar
     7    3   31 1
     8    4    5 ar
     9    4    7 1
    10    5    6 ar
    11    5   32 1
    12    6   33 1
    13    7    8 1
    14    7   10 1
    15    7   34 1
    16    8    9 1
    17    8   35 1
    18    8   36 1
    19    9   37 1
    20    9   38 1
    21    9   45 1
    22   10   11 am
    23   10   39 1
    24   11   12 2
    25   11   13 1
    26   13   17 1
    27   13   14 2
    28   14   15 1
    29   14   40 1
    30   15   16 2
    31   15   28 1
    32   16   17 1
    33   16   18 1
    34   18   23 ar
    35   18   19 ar
    36   19   20 ar
    37   19   41 1
    38   20   21 ar
    39   20   42 1
    40   21   22 ar
    41   22   26 1
    42   22   23 ar
    43   23   24 1
    44   24   25 2
    45   24   43 1
    46   25   26 1
    47   25   44 1
    48   26   27 1
@<TRIPOS>MOLECULE
CHEMBL512135
   45    48     0     0     0
SMALL
USER_CHARGES

@<TRIPOS>ATOM
      1 C1         -0.0555    0.8699    0.7660 C.ar      1 <0>        -0.0946
      2 C2          1.0763    1.6594    0.6848 C.ar      1 <0>        -0.1093
      3 C3          2.3170    1.0736    0.5157 C.ar      1 <0>        -0.0939
      4 C4          2.4258   -0.3016    0.4283 C.ar      1 <0>        -0.1236
      5 C5          1.2941   -1.0912    0.5104 C.ar      1 <0>        -0.1107
      6 C6          0.0533   -0.5053    0.6780 C.ar      1 <0>        -0.1096
      7 C7          3.7782   -0.9402    0.2430 C.3       1 <0>         0.1718
      8 C8          4.2856   -1.4600    1.5895 C.3       1 <0>        -0.0186
      9 N1          5.5464   -2.1871    1.3902 N.4       1 <0>        -0.6347
     10 N2          3.6665   -2.0555   -0.7004 N.am      1 <0>        -0.7319
     11 C9          4.7443   -2.4520   -1.4058 C.2       1 <0>         0.6124
     12 O1          5.8104   -1.8834   -1.2591 O.2       1 <0>        -0.5337
     13 C10         4.6325   -3.5678   -2.3495 C.2       1 <0>        -0.2783
     14 C11         5.6120   -4.1272   -3.1578 C.2       1 <0>        -0.0180
     15 C12         5.2749   -5.1750   -3.9679 C.2       1 <0>        -0.1498
     16 C13         3.9670   -5.6376   -3.9498 C.2       1 <0>        -0.0137
     17 S1          3.2034   -4.5606   -2.7481 S.3       1 <0>         0.1729
     18 C14         3.3635   -6.7399   -4.7214 C.ar      1 <0>         0.0346
     19 C15         3.9861   -7.9890   -4.8053 C.ar      1 <0>        -0.1478
     20 C16         3.3853   -8.9942   -5.5395 C.ar      1 <0>         0.1415
     21 N3          2.2406   -8.8075   -6.1639 N.ar      1 <0>        -0.4752
     22 C17         1.5984   -7.6473   -6.1247 C.ar      1 <0>         0.2909
     23 C18         2.1367   -6.5718   -5.3945 C.ar      1 <0>        -0.1240
     24 C19         1.1983   -5.4630   -5.5450 C.2       1 <0>        -0.2116
     25 C20         0.1898   -5.9070   -6.3147 C.2       1 <0>         0.0889
     26 N4          0.4190   -7.2069   -6.6769 N.pl3     1 <0>        -0.5766
     27 H1         -0.1700   -7.7422   -7.2313 H         1 <0>         0.4275
     28 Br1         6.5659   -5.9785   -5.0920 Br        1 <0>         0.0020
     29 H2         -1.0243    1.3273    0.9026 H         1 <0>         0.1334
     30 H3          0.9913    2.7339    0.7531 H         1 <0>         0.1344
     31 H4          3.2011    1.6905    0.4516 H         1 <0>         0.1308
     32 H5          1.3791   -2.1656    0.4417 H         1 <0>         0.1215
     33 H6         -0.8309   -1.1221    0.7418 H         1 <0>         0.1331
     34 H7          4.4780   -0.2019   -0.1485 H         1 <0>         0.1278
     35 H8          4.4533   -0.6199    2.2635 H         1 <0>         0.1528
     36 H9          3.5438   -2.1310    2.0228 H         1 <0>         0.1395
     37 H10         5.8810   -2.5299    2.2782 H         1 <0>         0.4378
     38 H11         5.3912   -2.9647    0.7663 H         1 <0>         0.4264
     39 H12         2.8168   -2.5086   -0.8172 H         1 <0>         0.4155
     40 H13         6.6208   -3.7419   -3.1472 H         1 <0>         0.1609
     41 H14         4.9254   -8.1662   -4.3026 H         1 <0>         0.1463
     42 H15         3.8676   -9.9584   -5.6033 H         1 <0>         0.1737
     43 H16         1.2956   -4.4754   -5.1188 H         1 <0>         0.1501
     44 H17        -0.6684   -5.3222   -6.6115 H         1 <0>         0.1863
     45 H18         6.2330   -1.5660    0.9891 H         1 <0>         0.4428
@<TRIPOS>BOND
     1    1    6 ar
     2    1    2 ar
     3    1   29 1
     4    2    3 ar
     5    2   30 1
     6    3    4 ar
     7    3   31 1
     8    4    5 ar
     9    4    7 1
    10    5    6 ar
    11    5   32 1
    12    6   33 1
    13    7    8 1
    14    7   10 1
    15    7   34 1
    16    8    9 1
    17    8   35 1
    18    8   36 1
    19    9   37 1
    20    9   38 1
    21    9   45 1
    22   10   11 am
    23   10   39 1
    24   11   12 2
    25   11   13 1
    26   13   17 1
    27   13   14 2
    28   14   15 1
    29   14   40 1
    30   15   16 2
    31   15   28 1
    32   16   17 1
    33   16   18 1
    34   18   23 ar
    35   18   19 ar
    36   19   20 ar
    37   19   41 1
    38   20   21 ar
    39   20   42 1
    40   21   22 ar
    41   22   26 1
    42   22   23 ar
    43   23   24 1
    44   24   25 2
    45   24   43 1
    46   25   26 1
    47   25   44 1
    48   26   27 1
@<TRIPOS>MOLECULE
CHEMBL402199
   70    76     0     0     0
SMALL
USER_CHARGES

@<TRIPOS>ATOM
      1 C1         -0.0167    1.3791    0.0096 C.ar      1 <0>        -0.1101
      2 C2          1.1686    2.0924    0.0021 C.ar      1 <0>        -0.1114
      3 C3          2.3774    1.4269   -0.0135 C.ar      1 <0>        -0.1058
      4 C4          2.4026    0.0330   -0.0212 C.ar      1 <0>        -0.0463
      5 C5          1.2049   -0.6804   -0.0131 C.ar      1 <0>        -0.1000
      6 C6          0.0021   -0.0041    0.0020 C.ar      1 <0>        -0.1208
      7 C7          3.6978   -0.6876   -0.0384 C.ar      1 <0>        -0.1175
      8 C8          4.6777   -0.3464   -0.9613 C.ar      1 <0>         0.0048
      9 C9          5.8822   -1.0592   -0.9338 C.ar      1 <0>        -0.2487
     10 C10         6.9382   -0.7816   -1.8350 C.ar      1 <0>         0.4948
     11 N1          8.0479   -1.5039   -1.7418 N.ar      1 <0>        -0.5950
     12 C11         8.1732   -2.4588   -0.8351 C.ar      1 <0>         0.3856
     13 N2          7.2281   -2.7591    0.0241 N.ar      1 <0>        -0.5455
     14 C12         6.0635   -2.0923    0.0205 C.ar      1 <0>         0.3816
     15 N3          5.0935   -2.3829    0.8857 N.ar      1 <0>        -0.4572
     16 C13         3.9493   -1.7234    0.8867 C.ar      1 <0>         0.2424
     17 C14         2.9060   -2.0823    1.8752 C.ar      1 <0>        -0.0178
     18 C15         2.0789   -1.0949    2.4100 C.ar      1 <0>        -0.0778
     19 C16         1.1089   -1.4354    3.3304 C.ar      1 <0>        -0.1021
     20 C17         0.9560   -2.7531    3.7229 C.ar      1 <0>        -0.1475
     21 C18         1.7734   -3.7371    3.1960 C.ar      1 <0>        -0.0961
     22 C19         2.7431   -3.4098    2.2706 C.ar      1 <0>        -0.0686
     23 C20        -0.1050   -3.1181    4.7289 C.3       1 <0>         0.0432
     24 N4         -1.3556   -3.4379    4.0276 N.4       1 <0>        -0.3851
     25 C21        -1.8526   -2.2374    3.3447 C.3       1 <0>        -0.0070
     26 C22        -3.1110   -2.5843    2.5463 C.3       1 <0>        -0.1647
     27 C23        -4.1856   -3.1120    3.5014 C.3       1 <0>         0.1609
     28 C24        -3.6299   -4.3192    4.2624 C.3       1 <0>        -0.1670
     29 C25        -2.3522   -3.9080    4.9972 C.3       1 <0>         0.0010
     30 N5         -5.3662   -3.5173    2.7346 N.am      1 <0>        -0.5373
     31 C26        -6.6472   -2.9872    2.8694 C.ar      1 <0>         0.0796
     32 C27        -7.1893   -2.0039    3.6830 C.ar      1 <0>        -0.1044
     33 C28        -8.5307   -1.6911    3.5826 C.ar      1 <0>        -0.1028
     34 C29        -9.3364   -2.3554    2.6737 C.ar      1 <0>        -0.0990
     35 C30        -8.8056   -3.3365    1.8595 C.ar      1 <0>        -0.1001
     36 C31        -7.4597   -3.6569    1.9523 C.ar      1 <0>         0.0916
     37 N6         -6.6471   -4.5731    1.2887 N.am      1 <0>        -0.6395
     38 H1         -6.9326   -5.1844    0.5917 H         1 <0>         0.4397
     39 C32        -5.3968   -4.4617    1.7754 C.2       1 <0>         0.6856
     40 O1         -4.4402   -5.1174    1.4069 O.2       1 <0>        -0.5575
     41 N7          6.8171    0.2107   -2.7832 N.pl3     1 <0>        -0.8104
     42 H2         -0.9603    1.9042    0.0260 H         1 <0>         0.1260
     43 H3          1.1478    3.1722    0.0082 H         1 <0>         0.1299
     44 H4          3.3021    1.9848   -0.0200 H         1 <0>         0.1268
     45 H5          1.2183   -1.7603   -0.0194 H         1 <0>         0.1208
     46 H6         -0.9264   -0.5557    0.0079 H         1 <0>         0.1221
     47 H7          4.5154    0.4444   -1.6787 H         1 <0>         0.1455
     48 H8          9.0966   -3.0178   -0.8007 H         1 <0>         0.2087
     49 H9          2.1976   -0.0658    2.1046 H         1 <0>         0.1438
     50 H10         0.4681   -0.6716    3.7455 H         1 <0>         0.1353
     51 H11         1.6494   -4.7640    3.5066 H         1 <0>         0.1371
     52 H12         3.3775   -4.1795    1.8563 H         1 <0>         0.1444
     53 H13         0.2215   -3.9853    5.3030 H         1 <0>         0.1404
     54 H14        -0.2712   -2.2778    5.4029 H         1 <0>         0.1382
     55 H15        -2.0910   -1.4722    4.0835 H         1 <0>         0.1327
     56 H16        -1.0856   -1.8612    2.6678 H         1 <0>         0.1391
     57 H17        -3.4795   -1.6913    2.0415 H         1 <0>         0.1166
     58 H18        -2.8737   -3.3493    1.8070 H         1 <0>         0.1070
     59 H19        -4.4601   -2.3298    4.2091 H         1 <0>         0.1149
     60 H20        -4.3693   -4.6662    4.9842 H         1 <0>         0.1181
     61 H21        -3.4033   -5.1202    3.5587 H         1 <0>         0.1076
     62 H22        -1.9541   -4.7652    5.5402 H         1 <0>         0.1389
     63 H23        -2.5799   -3.1072    5.7007 H         1 <0>         0.1335
     64 H24        -6.5640   -1.4841    4.3937 H         1 <0>         0.1289
     65 H25        -8.9531   -0.9253    4.2163 H         1 <0>         0.1386
     66 H26       -10.3846   -2.1055    2.6012 H         1 <0>         0.1399
     67 H27        -9.4373   -3.8531    1.1520 H         1 <0>         0.1366
     68 H28         6.0000    0.7303   -2.8398 H         1 <0>         0.4140
     69 H29         7.5490    0.3897   -3.3941 H         1 <0>         0.4205
     70 H30        -1.1824   -4.1622    3.3468 H         1 <0>         0.4263
@<TRIPOS>BOND
     1    1    6 ar
     2    1    2 ar
     3    1   42 1
     4    2    3 ar
     5    2   43 1
     6    3    4 ar
     7    3   44 1
     8    4    5 ar
     9    4    7 1
    10    5    6 ar
    11    5   45 1
    12    6   46 1
    13    7   16 ar
    14    7    8 ar
    15    8    9 ar
    16    8   47 1
    17    9   14 ar
    18    9   10 ar
    19   10   11 ar
    20   10   41 1
    21   11   12 ar
    22   12   13 ar
    23   12   48 1
    24   13   14 ar
    25   14   15 ar
    26   15   16 ar
    27   16   17 1
    28   17   22 ar
    29   17   18 ar
    30   18   19 ar
    31   18   49 1
    32   19   20 ar
    33   19   50 1
    34   20   21 ar
    35   20   23 1
    36   21   22 ar
    37   21   51 1
    38   22   52 1
    39   23   24 1
    40   23   53 1
    41   23   54 1
    42   24   29 1
    43   24   25 1
    44   24   70 1
    45   25   26 1
    46   25   55 1
    47   25   56 1
    48   26   27 1
    49   26   57 1
    50   26   58 1
    51   27   28 1
    52   27   30 1
    53   27   59 1
    54   28   29 1
    55   28   60 1
    56   28   61 1
    57   29   62 1
    58   29   63 1
    59   30   39 am
    60   30   31 1
    61   31   36 ar
    62   31   32 ar
    63   32   33 ar
    64   32   64 1
    65   33   34 ar
    66   33   65 1
    67   34   35 ar
    68   34   66 1
    69   35   36 ar
    70   35   67 1
    71   36   37 1
    72   37   38 1
    73   37   39 am
    74   39   40 2
    75   41   68 1
    76   41   69 1
@<TRIPOS>MOLECULE
CHEMBL590957
   44    47     0     0     0
SMALL
USER_CHARGES

@<TRIPOS>ATOM
      1 C1         -0.0146    1.5234   -0.2808 C.ar      1 <0>        -0.0821
      2 C2          1.1970    2.1845   -0.2024 C.ar      1 <0>        -0.0766
      3 C3          2.3734    1.4644   -0.1153 C.ar      1 <0>        -0.0929
      4 C4          2.3390    0.0810   -0.1060 C.ar      1 <0>        -0.0624
      5 C5          1.1271   -0.5809   -0.1840 C.ar      1 <0>        -0.0843
      6 C6         -0.0501    0.1405   -0.2716 C.ar      1 <0>        -0.0195
      7 Cl1        -1.5717   -0.6895   -0.3694 Cl        1 <0>        -0.0321
      8 Cl2         3.8168   -0.8234    0.0028 Cl        1 <0>        -0.0603
      9 C7          3.6938    2.1858   -0.0309 C.3       1 <0>        -0.1060
     10 C8          4.1628    2.2224    1.4250 C.3       1 <0>         0.0689
     11 C9          3.1240    2.9553    2.2770 C.3       1 <0>        -0.1518
     12 C10         2.9344    4.3753    1.7345 C.3       1 <0>         0.1522
     13 N1          4.2443    5.0384    1.6773 N.pl3     1 <0>        -0.6497
     14 C11         5.3411    4.3751    0.9592 C.3       1 <0>         0.1502
     15 C12         5.5037    2.9551    1.5104 C.3       1 <0>        -0.1483
     16 C13         4.4414    6.2669    2.2889 C.ar      1 <0>         0.3934
     17 C14         4.2155    7.4534    1.5930 C.ar      1 <0>        -0.0737
     18 C15         4.4284    8.6738    2.2549 C.ar      1 <0>         0.3483
     19 N2          4.1441    9.6544    1.3776 N.2       1 <0>        -0.5827
     20 H1          3.5734    7.1508   -0.3938 H         1 <0>         0.4016
     21 C16         3.7745    9.1342    0.2327 C.2       1 <0>         0.5800
     22 O1          3.4195    9.8412   -0.8637 O.3       1 <0>        -0.6710
     23 N3          3.8015    7.7751    0.3128 N.pl3     1 <0>        -0.6327
     24 N4          4.8392    8.6496    3.5273 N.ar      1 <0>        -0.5163
     25 C17         5.0390    7.5053    4.1437 C.ar      1 <0>         0.2923
     26 N5          4.8453    6.3392    3.5554 N.ar      1 <0>        -0.5647
     27 N6          4.3227    0.8495    1.9223 N.4       1 <0>        -0.6397
     28 H2         -0.9338    2.0867   -0.3447 H         1 <0>         0.1539
     29 H3          1.2243    3.2641   -0.2097 H         1 <0>         0.1560
     30 H4          1.0999   -1.6605   -0.1767 H         1 <0>         0.1546
     31 H5          4.4330    1.6628   -0.6377 H         1 <0>         0.1068
     32 H6          3.5755    3.2045   -0.4003 H         1 <0>         0.1348
     33 H7          2.1754    2.4200    2.2344 H         1 <0>         0.0892
     34 H8          3.4690    3.0034    3.3098 H         1 <0>         0.0998
     35 H9          2.5039    4.3299    0.7342 H         1 <0>         0.0612
     36 H10         2.2709    4.9333    2.3952 H         1 <0>         0.0913
     37 H11         5.1068    4.3297   -0.1044 H         1 <0>         0.0651
     38 H12         6.2656    4.9330    1.1083 H         1 <0>         0.0921
     39 H13         5.8264    3.0032    2.5504 H         1 <0>         0.1004
     40 H14         6.2489    2.4196    0.9221 H         1 <0>         0.0927
     41 H15         5.3711    7.5199    5.1713 H         1 <0>         0.1866
     42 H16         5.0071    0.3658    1.3604 H         1 <0>         0.4235
     43 H17         4.6320    0.8734    2.8824 H         1 <0>         0.4289
     44 H18         3.4388    0.3661    1.8656 H         1 <0>         0.4229
@<TRIPOS>BOND
     1    1    6 ar
     2    1    2 ar
     3    1   28 1
     4    2    3 ar
     5    2   29 1
     6    3    4 ar
     7    3    9 1
     8    4    5 ar
     9    4    8 1
    10    5    6 ar
    11    5   30 1
    12    6    7 1
    13    9   10 1
    14    9   31 1
    15    9   32 1
    16   10   15 1
    17   10   11 1
    18   10   27 1
    19   11   12 1
    20   11   33 1
    21   11   34 1
    22   12   13 1
    23   12   35 1
    24   12   36 1
    25   13   14 1
    26   13   16 1
    27   14   15 1
    28   14   37 1
    29   14   38 1
    30   15   39 1
    31   15   40 1
    32   16   26 ar
    33   16   17 ar
    34   17   23 1
    35   17   18 ar
    36   18   19 1
    37   18   24 ar
    38   19   21 2
    39   20   23 1
    40   21   23 1
    41   21   22 1
    42   24   25 ar
    43   25   41 1
    44   25   26 ar
    45   27   42 1
    46   27   43 1
    47   27   44 1
@<TRIPOS>MOLECULE
CHEMBL590957
   44    47     0     0     0
SMALL
USER_CHARGES

@<TRIPOS>ATOM
      1 C1         -0.0138    1.3509    0.0654 C.ar      1 <0>        -0.0803
      2 C2          1.1681    2.0676    0.0416 C.ar      1 <0>        -0.0732
      3 C3          2.3793    1.4031    0.0060 C.ar      1 <0>        -0.0938
      4 C4          2.4096    0.0196   -0.0054 C.ar      1 <0>        -0.0630
      5 C5          1.2275   -0.6980    0.0188 C.ar      1 <0>        -0.0860
      6 C6          0.0153   -0.0321    0.0540 C.ar      1 <0>        -0.0195
      7 Cl1        -1.4690   -0.9319    0.0845 Cl        1 <0>        -0.0338
      8 Cl2         3.9311   -0.8150   -0.0508 Cl        1 <0>        -0.0634
      9 C7          3.6672    2.1851   -0.0210 C.3       1 <0>        -0.1033
     10 C8          4.2690    2.2252    1.3851 C.3       1 <0>         0.0626
     11 C9          3.2824    2.8970    2.3430 C.3       1 <0>        -0.1487
     12 C10         2.9775    4.3133    1.8452 C.3       1 <0>         0.1087
     13 N1          4.2443    5.0384    1.6773 N.pl3     1 <0>        -0.6012
     14 C11         5.2980    4.4372    0.8485 C.3       1 <0>         0.1290
     15 C12         5.5769    3.0194    1.3575 C.3       1 <0>        -0.1461
     16 C13         4.4413    6.2659    2.2884 C.ar      1 <0>         0.4271
     17 C14         3.3952    6.9018    2.9768 C.ar      1 <0>        -0.0241
     18 C15         3.6546    8.1448    3.5762 C.ar      1 <0>         0.2570
     19 N2          2.4778    8.5345    4.1716 N.pl3     1 <0>        -0.6200
     20 H1          2.3302    9.3539    4.6694 H         1 <0>         0.4103
     21 C16         1.5547    7.5561    3.9327 C.2       1 <0>         0.5624
     22 O1          0.2706    7.5772    4.3595 O.3       1 <0>        -0.6860
     23 N3          2.0975    6.5966    3.2294 N.2       1 <0>        -0.5958
     24 N4          4.8701    8.6713    3.4715 N.ar      1 <0>        -0.5353
     25 C17         5.8209    8.0395    2.8157 C.ar      1 <0>         0.2838
     26 N5          5.6259    6.8664    2.2414 N.ar      1 <0>        -0.5793
     27 N6          4.5380    0.8551    1.8416 N.4       1 <0>        -0.6395
     28 H2         -0.9599    1.8708    0.0974 H         1 <0>         0.1552
     29 H3          1.1449    3.1474    0.0505 H         1 <0>         0.1590
     30 H4          1.2507   -1.7777    0.0099 H         1 <0>         0.1536
     31 H5          4.3692    1.7056   -0.7031 H         1 <0>         0.1053
     32 H6          3.4679    3.2017   -0.3600 H         1 <0>         0.1344
     33 H7          2.3597    2.3179    2.3800 H         1 <0>         0.0933
     34 H8          3.7206    2.9481    3.3397 H         1 <0>         0.0934
     35 H9          2.4572    4.2604    0.8888 H         1 <0>         0.0626
     36 H10         2.3542    4.8307    2.5745 H         1 <0>         0.1615
     37 H11         4.9670    4.3944   -0.1891 H         1 <0>         0.0663
     38 H12         6.2058    5.0363    0.9202 H         1 <0>         0.1157
     39 H13         5.9935    3.0694    2.3635 H         1 <0>         0.0956
     40 H14         6.2872    2.5275    0.6931 H         1 <0>         0.0943
     41 H15         6.7978    8.4952    2.7490 H         1 <0>         0.1879
     42 H16         5.1880    0.4117    1.2100 H         1 <0>         0.4220
     43 H17         4.9349    0.8813    2.7689 H         1 <0>         0.4279
     44 H18         3.6759    0.3312    1.8595 H         1 <0>         0.4235
@<TRIPOS>BOND
     1    1    6 ar
     2    1    2 ar
     3    1   28 1
     4    2    3 ar
     5    2   29 1
     6    3    4 ar
     7    3    9 1
     8    4    5 ar
     9    4    8 1
    10    5    6 ar
    11    5   30 1
    12    6    7 1
    13    9   10 1
    14    9   31 1
    15    9   32 1
    16   10   15 1
    17   10   11 1
    18   10   27 1
    19   11   12 1
    20   11   33 1
    21   11   34 1
    22   12   13 1
    23   12   35 1
    24   12   36 1
    25   13   14 1
    26   13   16 1
    27   14   15 1
    28   14   37 1
    29   14   38 1
    30   15   39 1
    31   15   40 1
    32   16   26 ar
    33   16   17 ar
    34   17   23 1
    35   17   18 ar
    36   18   19 1
    37   18   24 ar
    38   19   20 1
    39   19   21 1
    40   21   22 1
    41   21   23 2
    42   24   25 ar
    43   25   26 ar
    44   25   41 1
    45   27   42 1
    46   27   43 1
    47   27   44 1
@<TRIPOS>MOLECULE
CHEMBL590957
   45    48     0     0     0
SMALL
USER_CHARGES

@<TRIPOS>ATOM
      1 C1         -0.0146    1.5233   -0.2805 C.ar      1 <0>        -0.0828
      2 C2          1.1970    2.1844   -0.2022 C.ar      1 <0>        -0.0794
      3 C3          2.3734    1.4643   -0.1152 C.ar      1 <0>        -0.0999
      4 C4          2.3391    0.0810   -0.1059 C.ar      1 <0>        -0.0620
      5 C5          1.1272   -0.5810   -0.1838 C.ar      1 <0>        -0.0817
      6 C6         -0.0501    0.1404   -0.2713 C.ar      1 <0>        -0.0172
      7 Cl1        -1.5717   -0.6897   -0.3690 Cl        1 <0>        -0.0251
      8 Cl2         3.8169   -0.8234    0.0028 Cl        1 <0>        -0.0564
      9 C7          3.6938    2.1858   -0.0309 C.3       1 <0>        -0.1050
     10 C8          4.1629    2.2224    1.4249 C.3       1 <0>         0.0677
     11 C9          3.1241    2.9552    2.2770 C.3       1 <0>        -0.1542
     12 C10         2.9345    4.3753    1.7346 C.3       1 <0>         0.1480
     13 N1          4.2443    5.0384    1.6773 N.pl3     1 <0>        -0.6574
     14 C11         5.3411    4.3752    0.9591 C.3       1 <0>         0.1467
     15 C12         5.5038    2.9551    1.5102 C.3       1 <0>        -0.1508
     16 C13         4.4416    6.2678    2.2894 C.ar      1 <0>         0.4288
     17 C14         4.2155    7.4546    1.5930 C.ar      1 <0>        -0.0058
     18 C15         4.4281    8.6661    2.2522 C.ar      1 <0>         0.3566
     19 N2          4.1345    9.6710    1.3483 N.am      1 <0>        -0.6184
     20 H1          4.1904   10.6235    1.5229 H         1 <0>         0.4486
     21 C16         3.7582    9.1060    0.1851 C.2       1 <0>         0.6927
     22 O1          3.4330    9.7141   -0.8175 O.2       1 <0>        -0.5221
     23 N3          3.7970    7.7639    0.3017 N.am      1 <0>        -0.6245
     24 H2          3.5728    7.1250   -0.3929 H         1 <0>         0.4396
     25 N4          4.8379    8.6485    3.5162 N.ar      1 <0>        -0.5020
     26 C17         5.0414    7.5061    4.1403 C.ar      1 <0>         0.3281
     27 N5          4.8455    6.3399    3.5560 N.ar      1 <0>        -0.5150
     28 N6          4.3229    0.8495    1.9222 N.4       1 <0>        -0.6402
     29 H3         -0.9338    2.0865   -0.3443 H         1 <0>         0.1543
     30 H4          1.2242    3.2640   -0.2094 H         1 <0>         0.1525
     31 H5          1.1000   -1.6607   -0.1766 H         1 <0>         0.1571
     32 H6          4.4329    1.6629   -0.6378 H         1 <0>         0.1092
     33 H7          3.5754    3.2045   -0.4003 H         1 <0>         0.1316
     34 H8          2.1756    2.4199    2.2345 H         1 <0>         0.0969
     35 H9          3.4693    3.0034    3.3098 H         1 <0>         0.1022
     36 H10         2.5038    4.3299    0.7343 H         1 <0>         0.0721
     37 H11         2.2710    4.9333    2.3953 H         1 <0>         0.0948
     38 H12         5.1067    4.3298   -0.1044 H         1 <0>         0.0760
     39 H13         6.2656    4.9331    1.1081 H         1 <0>         0.0954
     40 H14         5.8265    3.0033    2.5502 H         1 <0>         0.1029
     41 H15         6.2490    2.4197    0.9219 H         1 <0>         0.1001
     42 H16         5.3747    7.5252    5.1674 H         1 <0>         0.2150
     43 H17         5.0073    0.3658    1.3603 H         1 <0>         0.4264
     44 H18         4.6323    0.8734    2.8823 H         1 <0>         0.4303
     45 H19         3.4390    0.3661    1.8656 H         1 <0>         0.4260
@<TRIPOS>BOND
     1    1    6 ar
     2    1    2 ar
     3    1   29 1
     4    2    3 ar
     5    2   30 1
     6    3    4 ar
     7    3    9 1
     8    4    5 ar
     9    4    8 1
    10    5    6 ar
    11    5   31 1
    12    6    7 1
    13    9   10 1
    14    9   32 1
    15    9   33 1
    16   10   15 1
    17   10   11 1
    18   10   28 1
    19   11   12 1
    20   11   34 1
    21   11   35 1
    22   12   13 1
    23   12   36 1
    24   12   37 1
    25   13   14 1
    26   13   16 1
    27   14   15 1
    28   14   38 1
    29   14   39 1
    30   15   40 1
    31   15   41 1
    32   16   27 ar
    33   16   17 ar
    34   17   23 1
    35   17   18 ar
    36   18   19 1
    37   18   25 ar
    38   19   20 1
    39   19   21 am
    40   21   22 2
    41   21   23 am
    42   23   24 1
    43   25   26 ar
    44   26   27 ar
    45   26   42 1
    46   28   43 1
    47   28   44 1
    48   28   45 1
@<TRIPOS>MOLECULE
CHEMBL408151
   73    80     0     0     0
SMALL
USER_CHARGES

@<TRIPOS>ATOM
      1 C1         -0.3304    0.5262   -0.9333 C.ar      1 <0>        -0.1092
      2 C2          0.7260    1.4183   -0.8886 C.ar      1 <0>        -0.1179
      3 C3          2.0102    0.9612   -0.6748 C.ar      1 <0>        -0.0789
      4 C4          2.2422   -0.4034   -0.5034 C.ar      1 <0>        -0.0354
      5 C5          1.1730   -1.2979   -0.5495 C.ar      1 <0>        -0.0945
      6 C6         -0.1067   -0.8286   -0.7640 C.ar      1 <0>        -0.1271
      7 C7          3.6183   -0.9007   -0.2740 C.ar      1 <0>         0.1326
      8 C8          3.8612   -1.8599    0.7407 C.ar      1 <0>         0.1197
      9 N1          5.0838   -2.3096    0.9533 N.ar      1 <0>        -0.4017
     10 C9          6.0984   -1.8575    0.2065 C.ar      1 <0>         0.0947
     11 C10         7.4058   -2.3236    0.4164 C.ar      1 <0>        -0.0837
     12 C11         8.4370   -1.8404   -0.3697 C.ar      1 <0>         0.0884
     13 C12         8.1839   -0.8890   -1.3729 C.ar      1 <0>        -0.0598
     14 C13         6.9263   -0.4260   -1.5913 C.ar      1 <0>        -0.0915
     15 C14         5.8551   -0.8973   -0.8098 C.ar      1 <0>         0.0805
     16 N2          4.6115   -0.4521   -1.0194 N.ar      1 <0>        -0.4041
     17 C15         9.8169   -2.3286   -0.1522 C.2       1 <0>         0.0584
     18 N3         10.9092   -1.9605   -0.8241 N.2       1 <0>        -0.3559
     19 N4         11.9055   -2.6135   -0.3311 N.2       1 <0>        -0.1787
     20 N5         11.4867   -3.3738    0.6191 N.2       1 <0>        -0.1804
     21 N6         10.2144   -3.2193    0.7582 N.2       1 <0>        -0.3566
     22 C16         2.7377   -2.3598    1.5668 C.ar      1 <0>         0.0133
     23 C17         1.8019   -1.4676    2.0894 C.ar      1 <0>        -0.0821
     24 C18         0.7576   -1.9392    2.8582 C.ar      1 <0>        -0.0969
     25 C19         0.6382   -3.2941    3.1114 C.ar      1 <0>        -0.1614
     26 C20         1.5635   -4.1840    2.5958 C.ar      1 <0>        -0.0906
     27 C21         2.6085   -3.7251    1.8204 C.ar      1 <0>        -0.0816
     28 C22        -0.5040   -3.8025    3.9527 C.3       1 <0>         0.0463
     29 N7         -1.6497   -4.1123    3.0870 N.4       1 <0>        -0.3853
     30 C23        -2.1368   -2.8769    2.4617 C.3       1 <0>        -0.0075
     31 C24        -3.2782   -3.2048    1.4967 C.3       1 <0>        -0.1648
     32 C25        -4.4189   -3.8707    2.2715 C.3       1 <0>         0.1607
     33 C26        -3.8819   -5.1175    2.9803 C.3       1 <0>        -0.1665
     34 C27        -2.7181   -4.7187    3.8903 C.3       1 <0>         0.0012
     35 N8         -5.4832   -4.2562    1.3415 N.am      1 <0>        -0.5370
     36 C28        -6.7995   -3.8019    1.3755 C.ar      1 <0>         0.0813
     37 C29        -7.4830   -2.9270    2.2062 C.ar      1 <0>        -0.1043
     38 C30        -8.8210   -2.6692    1.9813 C.ar      1 <0>        -0.1038
     39 C31        -9.4827   -3.2810    0.9304 C.ar      1 <0>        -0.1006
     40 C32        -8.8105   -4.1543    0.0980 C.ar      1 <0>        -0.1009
     41 C33        -7.4668   -4.4186    0.3153 C.ar      1 <0>         0.0918
     42 N9         -6.5353   -5.2285   -0.3300 N.am      1 <0>        -0.6402
     43 H1         -6.7071   -5.7833   -1.1069 H         1 <0>         0.4393
     44 C34        -5.3543   -5.1054    0.3047 C.2       1 <0>         0.6853
     45 O1         -4.3271   -5.6775   -0.0090 O.2       1 <0>        -0.5548
     46 H2         -1.3344    0.8892   -1.0964 H         1 <0>         0.1229
     47 H3          0.5452    2.4747   -1.0218 H         1 <0>         0.1282
     48 H4          2.8342    1.6586   -0.6405 H         1 <0>         0.1300
     49 H5          1.3464   -2.3557   -0.4178 H         1 <0>         0.1202
     50 H6         -0.9354   -1.5202   -0.7999 H         1 <0>         0.1194
     51 H7          7.6055   -3.0540    1.1864 H         1 <0>         0.1507
     52 H8          8.9999   -0.5214   -1.9774 H         1 <0>         0.1501
     53 H9          6.7479    0.3053   -2.3658 H         1 <0>         0.1438
     54 H10         1.8944   -0.4097    1.8930 H         1 <0>         0.1372
     55 H11         0.0322   -1.2493    3.2634 H         1 <0>         0.1332
     56 H12         1.4653   -5.2405    2.7972 H         1 <0>         0.1345
     57 H13         3.3277   -4.4212    1.4147 H         1 <0>         0.1410
     58 H14        -0.1933   -4.7040    4.4806 H         1 <0>         0.1385
     59 H15        -0.7909   -3.0388    4.6756 H         1 <0>         0.1364
     60 H16        -2.4981   -2.1975    3.2336 H         1 <0>         0.1319
     61 H17        -1.3230   -2.4024    1.9133 H         1 <0>         0.1419
     62 H18        -3.6396   -2.2861    1.0348 H         1 <0>         0.1167
     63 H19        -2.9178   -3.8840    0.7241 H         1 <0>         0.1072
     64 H20        -4.8137   -3.1732    3.0102 H         1 <0>         0.1146
     65 H21        -4.6748   -5.5659    3.5788 H         1 <0>         0.1164
     66 H22        -3.5340   -5.8364    2.2385 H         1 <0>         0.1073
     67 H23        -2.3335   -5.6040    4.3966 H         1 <0>         0.1379
     68 H24        -3.0671   -4.0000    4.6318 H         1 <0>         0.1324
     69 H25        -6.9702   -2.4484    3.0274 H         1 <0>         0.1291
     70 H26        -9.3535   -1.9878    2.6282 H         1 <0>         0.1378
     71 H27       -10.5292   -3.0748    0.7610 H         1 <0>         0.1387
     72 H28        -9.3303   -4.6302   -0.7204 H         1 <0>         0.1358
     73 H29        -1.3618   -4.7596    2.3686 H         1 <0>         0.4264
@<TRIPOS>BOND
     1    1    6 ar
     2    1    2 ar
     3    1   46 1
     4    2    3 ar
     5    2   47 1
     6    3    4 ar
     7    3   48 1
     8    4    5 ar
     9    4    7 1
    10    5    6 ar
    11    5   49 1
    12    6   50 1
    13    7   16 ar
    14    7    8 ar
    15    8    9 ar
    16    8   22 1
    17    9   10 ar
    18   10   15 ar
    19   10   11 ar
    20   11   12 ar
    21   11   51 1
    22   12   13 ar
    23   12   17 1
    24   13   14 ar
    25   13   52 1
    26   14   15 ar
    27   14   53 1
    28   15   16 ar
    29   17   18 2
    30   17   21 1
    31   18   19 1
    32   19   20 2
    33   20   21 1
    34   22   27 ar
    35   22   23 ar
    36   23   24 ar
    37   23   54 1
    38   24   25 ar
    39   24   55 1
    40   25   26 ar
    41   25   28 1
    42   26   27 ar
    43   26   56 1
    44   27   57 1
    45   28   29 1
    46   28   58 1
    47   28   59 1
    48   29   34 1
    49   29   30 1
    50   29   73 1
    51   30   31 1
    52   30   60 1
    53   30   61 1
    54   31   32 1
    55   31   62 1
    56   31   63 1
    57   32   33 1
    58   32   35 1
    59   32   64 1
    60   33   34 1
    61   33   65 1
    62   33   66 1
    63   34   67 1
    64   34   68 1
    65   35   44 am
    66   35   36 1
    67   36   41 ar
    68   36   37 ar
    69   37   38 ar
    70   37   69 1
    71   38   39 ar
    72   38   70 1
    73   39   40 ar
    74   39   71 1
    75   40   41 ar
    76   40   72 1
    77   41   42 1
    78   42   43 1
    79   42   44 am
    80   44   45 2
@<TRIPOS>MOLECULE
CHEMBL271091
   73    80     0     0     0
SMALL
USER_CHARGES

@<TRIPOS>ATOM
      1 C1         -0.3308    0.5259   -0.9334 C.ar      1 <0>        -0.1081
      2 C2          0.7256    1.4181   -0.8888 C.ar      1 <0>        -0.1173
      3 C3          2.0099    0.9609   -0.6754 C.ar      1 <0>        -0.0768
      4 C4          2.2418   -0.4036   -0.5041 C.ar      1 <0>        -0.0387
      5 C5          1.1728   -1.2980   -0.5497 C.ar      1 <0>        -0.0940
      6 C6         -0.1070   -0.8288   -0.7642 C.ar      1 <0>        -0.1281
      7 C7          3.6183   -0.9010   -0.2752 C.ar      1 <0>         0.1460
      8 C8          3.8622   -1.8602    0.7392 C.ar      1 <0>         0.1058
      9 N1          5.0850   -2.3104    0.9518 N.ar      1 <0>        -0.3994
     10 C9          6.0996   -1.8596    0.2060 C.ar      1 <0>         0.0709
     11 C10         7.4092   -2.3287    0.4184 C.ar      1 <0>        -0.0890
     12 C11         8.4313   -1.8637   -0.3450 C.ar      1 <0>        -0.0637
     13 C12         8.2018   -0.9123   -1.3538 C.ar      1 <0>         0.0928
     14 C13         6.9257   -0.4312   -1.5884 C.ar      1 <0>        -0.0863
     15 C14         5.8553   -0.8993   -0.8101 C.ar      1 <0>         0.1039
     16 N2          4.6112   -0.4528   -1.0205 N.ar      1 <0>        -0.4064
     17 C15         9.3334   -0.4211   -2.1710 C.2       1 <0>         0.0572
     18 N3         10.6122   -0.7868   -2.0656 N.2       1 <0>        -0.3561
     19 N4         11.2769   -0.1318   -2.9551 N.2       1 <0>        -0.1787
     20 N5         10.4724    0.6275   -3.6128 N.2       1 <0>        -0.1795
     21 N6          9.2748    0.4702   -3.1621 N.2       1 <0>        -0.3546
     22 C16         2.7392   -2.3601    1.5657 C.ar      1 <0>         0.0168
     23 C17         1.8035   -1.4678    2.0887 C.ar      1 <0>        -0.0828
     24 C18         0.7596   -1.9395    2.8579 C.ar      1 <0>        -0.0960
     25 C19         0.6403   -3.2943    3.1111 C.ar      1 <0>        -0.1625
     26 C20         1.5656   -4.1843    2.5955 C.ar      1 <0>        -0.0911
     27 C21         2.6101   -3.7255    1.8193 C.ar      1 <0>        -0.0839
     28 C22        -0.5019   -3.8028    3.9524 C.3       1 <0>         0.0465
     29 N7         -1.6476   -4.1127    3.0868 N.4       1 <0>        -0.3853
     30 C23        -2.1348   -2.8773    2.4615 C.3       1 <0>        -0.0075
     31 C24        -3.2762   -3.2053    1.4965 C.3       1 <0>        -0.1650
     32 C25        -4.4169   -3.8713    2.2714 C.3       1 <0>         0.1608
     33 C26        -3.8797   -5.1180    2.9801 C.3       1 <0>        -0.1665
     34 C27        -2.7160   -4.7192    3.8901 C.3       1 <0>         0.0013
     35 N8         -5.4812   -4.2567    1.3414 N.am      1 <0>        -0.5370
     36 C28        -6.7975   -3.8026    1.3755 C.ar      1 <0>         0.0812
     37 C29        -7.4810   -2.9277    2.2062 C.ar      1 <0>        -0.1043
     38 C30        -8.8190   -2.6700    1.9813 C.ar      1 <0>        -0.1038
     39 C31        -9.4808   -3.2818    0.9304 C.ar      1 <0>        -0.1004
     40 C32        -8.8085   -4.1550    0.0980 C.ar      1 <0>        -0.1008
     41 C33        -7.4648   -4.4193    0.3153 C.ar      1 <0>         0.0919
     42 N9         -6.5333   -5.2291   -0.3301 N.am      1 <0>        -0.6401
     43 H1         -6.7051   -5.7839   -1.1070 H         1 <0>         0.4393
     44 C34        -5.3522   -5.1059    0.3046 C.2       1 <0>         0.6854
     45 O1         -4.3251   -5.6780   -0.0092 O.2       1 <0>        -0.5550
     46 H2         -1.3348    0.8889   -1.0965 H         1 <0>         0.1232
     47 H3          0.5447    2.4745   -1.0215 H         1 <0>         0.1290
     48 H4          2.8339    1.6582   -0.6415 H         1 <0>         0.1313
     49 H5          1.3462   -2.3558   -0.4177 H         1 <0>         0.1198
     50 H6         -0.9357   -1.5205   -0.8000 H         1 <0>         0.1193
     51 H7          7.6016   -3.0595    1.1899 H         1 <0>         0.1425
     52 H8          9.4332   -2.2292   -0.1746 H         1 <0>         0.1498
     53 H9          6.7545    0.3001   -2.3645 H         1 <0>         0.1519
     54 H10         1.8959   -0.4098    1.8923 H         1 <0>         0.1375
     55 H11         0.0344   -1.2496    3.2635 H         1 <0>         0.1331
     56 H12         1.4674   -5.2408    2.7969 H         1 <0>         0.1336
     57 H13         3.3288   -4.4217    1.4130 H         1 <0>         0.1396
     58 H14        -0.1911   -4.7044    4.4803 H         1 <0>         0.1380
     59 H15        -0.7888   -3.0391    4.6753 H         1 <0>         0.1362
     60 H16        -2.4961   -2.1979    3.2335 H         1 <0>         0.1320
     61 H17        -1.3210   -2.4028    1.9131 H         1 <0>         0.1421
     62 H18        -3.6376   -2.2865    1.0347 H         1 <0>         0.1171
     63 H19        -2.9158   -3.8845    0.7239 H         1 <0>         0.1073
     64 H20        -4.8117   -3.1738    3.0101 H         1 <0>         0.1146
     65 H21        -4.6726   -5.5665    3.5786 H         1 <0>         0.1164
     66 H22        -3.5319   -5.8369    2.2383 H         1 <0>         0.1073
     67 H23        -2.3313   -5.6045    4.3964 H         1 <0>         0.1376
     68 H24        -3.0650   -4.0005    4.6316 H         1 <0>         0.1324
     69 H25        -6.9682   -2.4491    3.0274 H         1 <0>         0.1291
     70 H26        -9.3515   -1.9886    2.6283 H         1 <0>         0.1378
     71 H27       -10.5273   -3.0756    0.7611 H         1 <0>         0.1388
     72 H28        -9.3283   -4.6310   -0.7203 H         1 <0>         0.1359
     73 H29        -1.3597   -4.7600    2.3683 H         1 <0>         0.4263
@<TRIPOS>BOND
     1    1    6 ar
     2    1    2 ar
     3    1   46 1
     4    2    3 ar
     5    2   47 1
     6    3    4 ar
     7    3   48 1
     8    4    5 ar
     9    4    7 1
    10    5    6 ar
    11    5   49 1
    12    6   50 1
    13    7   16 ar
    14    7    8 ar
    15    8    9 ar
    16    8   22 1
    17    9   10 ar
    18   10   15 ar
    19   10   11 ar
    20   11   12 ar
    21   11   51 1
    22   12   13 ar
    23   12   52 1
    24   13   14 ar
    25   13   17 1
    26   14   15 ar
    27   14   53 1
    28   15   16 ar
    29   17   18 2
    30   17   21 1
    31   18   19 1
    32   19   20 2
    33   20   21 1
    34   22   27 ar
    35   22   23 ar
    36   23   24 ar
    37   23   54 1
    38   24   25 ar
    39   24   55 1
    40   25   26 ar
    41   25   28 1
    42   26   27 ar
    43   26   56 1
    44   27   57 1
    45   28   29 1
    46   28   58 1
    47   28   59 1
    48   29   34 1
    49   29   30 1
    50   29   73 1
    51   30   31 1
    52   30   60 1
    53   30   61 1
    54   31   32 1
    55   31   62 1
    56   31   63 1
    57   32   33 1
    58   32   35 1
    59   32   64 1
    60   33   34 1
    61   33   65 1
    62   33   66 1
    63   34   67 1
    64   34   68 1
    65   35   44 am
    66   35   36 1
    67   36   41 ar
    68   36   37 ar
    69   37   38 ar
    70   37   69 1
    71   38   39 ar
    72   38   70 1
    73   39   40 ar
    74   39   71 1
    75   40   41 ar
    76   40   72 1
    77   41   42 1
    78   42   43 1
    79   42   44 am
    80   44   45 2
@<TRIPOS>MOLECULE
CHEMBL536718
   69    72     0     0     0
SMALL
USER_CHARGES

@<TRIPOS>ATOM
      1 C1          2.9476   -2.6993   -8.0043 C.3       1 <0>         0.0887
      2 N1          1.6114   -2.7005   -8.6049 N.pl3     1 <0>        -0.6349
      3 C2          1.3752   -3.4096   -9.8649 C.3       1 <0>         0.0894
      4 C3          0.5605   -2.0242   -7.9750 C.ar      1 <0>         0.2120
      5 C4         -0.7097   -2.0312   -8.5442 C.ar      1 <0>        -0.1634
      6 C5         -1.7524   -1.3669   -7.9308 C.ar      1 <0>        -0.0916
      7 C6         -1.5416   -0.6865   -6.7410 C.ar      1 <0>         0.0758
      8 C7         -0.2648   -0.6749   -6.1607 C.ar      1 <0>        -0.1279
      9 C8          0.7854   -1.3551   -6.7852 C.ar      1 <0>        -0.1512
     10 C9         -0.0323    0.0458   -4.8963 C.2       1 <0>         0.4486
     11 O1          0.0795   -0.5728   -3.8557 O.2       1 <0>        -0.4264
     12 C10         0.0649    1.5223   -4.8934 C.ar      1 <0>        -0.1195
     13 C11         0.1770    2.2123   -3.6847 C.ar      1 <0>        -0.0668
     14 C12         0.2675    3.5872   -3.6823 C.ar      1 <0>        -0.0668
     15 C13         0.2470    4.2902   -4.8880 C.ar      1 <0>        -0.1182
     16 C14         0.1345    3.6007   -6.0963 C.ar      1 <0>        -0.0988
     17 C15         0.0503    2.2254   -6.0997 C.ar      1 <0>        -0.0628
     18 C16         0.3443    5.7672   -4.8850 C.2       1 <0>         0.5683
     19 O2          0.4418    6.3677   -3.8330 O.2       1 <0>        -0.5164
     20 N2          0.3246    6.4461   -6.0492 N.am      1 <0>        -0.7283
     21 C17         0.4208    7.9080   -6.0463 C.3       1 <0>         0.1252
     22 H1          1.0789    8.2216   -5.2360 H         1 <0>         0.1130
     23 C18        -0.9884    8.5100   -5.8190 C.3       1 <0>        -0.1409
     24 C19        -0.8416    9.9560   -5.4268 C.3       1 <0>        -0.1436
     25 C20        -0.8802   10.9236   -6.6232 C.3       1 <0>        -0.0106
     26 N3         -0.1003   10.4542   -7.7884 N.4       1 <0>        -0.4990
     27 C21         1.1624    9.8778   -7.3947 C.3       1 <0>        -0.0239
     28 C22         0.9800    8.3533   -7.3166 C.3       1 <0>         0.1229
     29 H2          0.3164    8.0374   -8.1216 H         1 <0>         0.1119
     30 N4          2.2840    7.7136   -7.5072 N.am      1 <0>        -0.7208
     31 C23         2.7738    7.5393   -8.7507 C.2       1 <0>         0.5730
     32 O3          2.1338    7.9128   -9.7137 O.2       1 <0>        -0.5210
     33 C24         4.0926    6.8923   -8.9435 C.ar      1 <0>        -0.1040
     34 C25         4.8426    6.4500   -7.8496 C.ar      1 <0>        -0.1410
     35 C26         6.0672    5.8516   -8.0751 C.ar      1 <0>         0.1046
     36 N5          6.5294    5.6963   -9.2998 N.ar      1 <0>        -0.4567
     37 C27         5.8547    6.0988  -10.3582 C.ar      1 <0>         0.1055
     38 C28         4.6190    6.7019  -10.2247 C.ar      1 <0>        -0.1101
     39 O4         -2.5681   -0.0331   -6.1399 O.3       1 <0>        -0.4943
     40 H3          3.5136   -1.8465   -8.3791 H         1 <0>         0.0514
     41 H4          2.8587   -2.6282   -6.9203 H         1 <0>         0.0691
     42 H5          3.4647   -3.6222   -8.2667 H         1 <0>         0.0723
     43 H6          1.0820   -4.4380   -9.6536 H         1 <0>         0.0533
     44 H7          0.5795   -2.9114  -10.4186 H         1 <0>         0.0703
     45 H8          2.2885   -3.4071  -10.4599 H         1 <0>         0.0710
     46 H9         -0.8801   -2.5591   -9.4709 H         1 <0>         0.1336
     47 H10        -2.7350   -1.3767   -8.3788 H         1 <0>         0.1367
     48 H11         1.7704   -1.3541   -6.3424 H         1 <0>         0.1318
     49 H12         0.1924    1.6685   -2.7517 H         1 <0>         0.1457
     50 H13         0.3538    4.1210   -2.7474 H         1 <0>         0.1456
     51 H14         0.1184    4.1449   -7.0291 H         1 <0>         0.1266
     52 H15        -0.0319    1.6917   -7.0350 H         1 <0>         0.1392
     53 H16         0.2467    5.9669   -6.8889 H         1 <0>         0.4061
     54 H17        -1.5689    8.4382   -6.7388 H         1 <0>         0.0763
     55 H18        -1.4943    7.9649   -5.0222 H         1 <0>         0.1073
     56 H19        -1.6489   10.2155   -4.7418 H         1 <0>         0.1173
     57 H20         0.1079   10.0818   -4.9065 H         1 <0>         0.0916
     58 H21        -1.9176   11.0587   -6.9293 H         1 <0>         0.1353
     59 H22        -0.4850   11.8882   -6.3046 H         1 <0>         0.1349
     60 H23        -0.6378    9.7595   -8.2850 H         1 <0>         0.4269
     61 H24         1.9255   10.1209   -8.1341 H         1 <0>         0.1442
     62 H25         1.4565   10.2651   -6.4192 H         1 <0>         0.1443
     63 H26         2.7950    7.4154   -6.7385 H         1 <0>         0.4162
     64 H27         4.4704    6.5745   -6.8434 H         1 <0>         0.1372
     65 H28         6.6539    5.5066   -7.2366 H         1 <0>         0.1674
     66 H29         6.2720    5.9517  -11.3434 H         1 <0>         0.1700
     67 H30         4.0697    7.0251  -11.0966 H         1 <0>         0.1510
     68 H31        -3.0655   -0.5750   -5.5121 H         1 <0>         0.3896
     69 H32         0.0728   11.2349   -8.4038 H         1 <0>         0.4376
@<TRIPOS>BOND
     1    1    2 1
     2    1   40 1
     3    1   41 1
     4    1   42 1
     5    2    3 1
     6    2    4 1
     7    3   43 1
     8    3   44 1
     9    3   45 1
    10    4    9 ar
    11    4    5 ar
    12    5    6 ar
    13    5   46 1
    14    6    7 ar
    15    6   47 1
    16    7    8 ar
    17    7   39 1
    18    8    9 ar
    19    8   10 1
    20    9   48 1
    21   10   11 2
    22   10   12 1
    23   12   17 ar
    24   12   13 ar
    25   13   14 ar
    26   13   49 1
    27   14   15 ar
    28   14   50 1
    29   15   16 ar
    30   15   18 1
    31   16   17 ar
    32   16   51 1
    33   17   52 1
    34   18   19 2
    35   18   20 am
    36   20   21 1
    37   20   53 1
    38   21   22 1
    39   21   28 1
    40   21   23 1
    41   23   24 1
    42   23   54 1
    43   23   55 1
    44   24   25 1
    45   24   56 1
    46   24   57 1
    47   25   26 1
    48   25   58 1
    49   25   59 1
    50   26   27 1
    51   26   60 1
    52   26   69 1
    53   27   28 1
    54   27   61 1
    55   27   62 1
    56   28   29 1
    57   28   30 1
    58   30   31 am
    59   30   63 1
    60   31   32 2
    61   31   33 1
    62   33   38 ar
    63   33   34 ar
    64   34   35 ar
    65   34   64 1
    66   35   36 ar
    67   35   65 1
    68   36   37 ar
    69   37   38 ar
    70   37   66 1
    71   38   67 1
    72   39   68 1
@<TRIPOS>MOLECULE
CHEMBL425650
   68    72     0     0     0
SMALL
USER_CHARGES

@<TRIPOS>ATOM
      1 C1          3.0370   -0.8304    0.3481 C.ar      1 <0>        -0.1165
      2 C2          3.5264    0.4215    0.0283 C.ar      1 <0>        -0.0822
      3 C3          3.5119    0.8627   -1.2938 C.ar      1 <0>         0.0117
      4 C4          3.0034    0.0404   -2.2937 C.ar      1 <0>        -0.0601
      5 C5          2.5108   -1.2217   -1.9667 C.ar      1 <0>        -0.1415
      6 C6          2.5308   -1.6523   -0.6383 C.ar      1 <0>        -0.1017
      7 C7          1.9679   -2.1022   -3.0233 C.2       1 <0>         0.5732
      8 O1          1.9510   -1.7256   -4.1789 O.2       1 <0>        -0.5237
      9 N1          1.4920   -3.3223   -2.7050 N.am      1 <0>        -0.7331
     10 C8          0.9542   -4.1947   -3.7519 C.3       1 <0>         0.0966
     11 C9          0.4845   -5.5103   -3.1279 C.3       1 <0>        -0.0224
     12 N2         -0.0548   -6.3851   -4.1777 N.4       1 <0>        -0.3787
     13 C10        -1.2552   -5.7697   -4.7564 C.3       1 <0>        -0.0153
     14 C11        -1.7745   -6.6373   -5.9049 C.3       1 <0>        -0.1458
     15 C12        -2.1204   -8.0297   -5.3695 C.3       1 <0>        -0.1398
     16 C13        -0.8804   -8.6318   -4.7022 C.3       1 <0>        -0.1464
     17 C14        -0.3942   -7.6903   -3.5983 C.3       1 <0>        -0.0059
     18 C15         4.0380    2.2086   -1.6342 C.2       1 <0>        -0.1465
     19 C16         4.5841    3.1409   -0.7341 C.2       1 <0>        -0.1159
     20 C17         4.9456    4.2523   -1.4753 C.2       1 <0>         0.0065
     21 N3          4.6278    4.0035   -2.7933 N.pl3     1 <0>        -0.5245
     22 H1          4.7735    4.6144   -3.5325 H         1 <0>         0.4202
     23 C18         4.0864    2.7713   -2.8907 C.2       1 <0>         0.0282
     24 C19         5.5341    5.4311   -0.9712 C.2       1 <0>         0.0334
     25 C20         6.8849    5.4601   -0.6829 C.2       1 <0>        -0.1215
     26 C21         7.6975    6.6351   -0.2965 C.ar      1 <0>        -0.1012
     27 C22         7.3985    7.9810   -0.1124 C.ar      1 <0>        -0.0481
     28 C23         8.4016    8.8619    0.2597 C.ar      1 <0>         0.1395
     29 C24         9.6991    8.3977    0.4468 C.ar      1 <0>        -0.0942
     30 C25         9.9997    7.0638    0.2653 C.ar      1 <0>        -0.1192
     31 C26         9.0048    6.1667   -0.1080 C.ar      1 <0>         0.1412
     32 N4          9.0382    4.7973   -0.3526 N.am      1 <0>        -0.6557
     33 C27         7.8234    4.3306   -0.6876 C.2       1 <0>         0.5544
     34 O2          7.5491    3.1732   -0.9514 O.2       1 <0>        -0.4809
     35 N5          8.1087   10.2198    0.4467 N.am      1 <0>        -0.6865
     36 C28         6.9732   10.5839    1.0748 C.2       1 <0>         0.7054
     37 O3          6.2173    9.7344    1.5053 O.2       1 <0>        -0.5772
     38 N6          6.6757   11.8897    1.2258 N.am      1 <0>        -0.8605
     39 H2          3.0547   -1.1689    1.3735 H         1 <0>         0.1321
     40 H3          3.9209    1.0600    0.8049 H         1 <0>         0.1319
     41 H4          2.9901    0.3786   -3.3193 H         1 <0>         0.1350
     42 H5          2.1496   -2.6299   -0.3826 H         1 <0>         0.1193
     43 H6          1.5056   -3.6228   -1.7829 H         1 <0>         0.4078
     44 H7          0.1121   -3.7021   -4.2382 H         1 <0>         0.0901
     45 H8          1.7307   -4.3990   -4.4891 H         1 <0>         0.0900
     46 H9          1.3265   -6.0028   -2.6417 H         1 <0>         0.1390
     47 H10        -0.2920   -5.3060   -2.3908 H         1 <0>         0.1374
     48 H11        -2.0249   -5.6843   -3.9894 H         1 <0>         0.1308
     49 H12        -1.0082   -4.7775   -5.1341 H         1 <0>         0.1331
     50 H13        -2.6668   -6.1796   -6.3321 H         1 <0>         0.1133
     51 H14        -1.0056   -6.7232   -6.6727 H         1 <0>         0.0888
     52 H15        -2.9250   -7.9497   -4.6386 H         1 <0>         0.0821
     53 H16        -2.4372   -8.6688   -6.1937 H         1 <0>         0.0949
     54 H17        -1.1336   -9.5997   -4.2697 H         1 <0>         0.1134
     55 H18        -0.0929   -8.7591   -5.4450 H         1 <0>         0.0885
     56 H19         0.4884   -8.1160   -3.1209 H         1 <0>         0.1315
     57 H20        -1.1823   -7.5639   -2.8559 H         1 <0>         0.1298
     58 H21         4.6992    3.0139    0.3322 H         1 <0>         0.1401
     59 H22         3.7449    2.3044   -3.8027 H         1 <0>         0.1704
     60 H23         4.9287    6.3109   -0.8106 H         1 <0>         0.1470
     61 H24         6.3897    8.3378   -0.2590 H         1 <0>         0.1385
     62 H25        10.4780    9.0875    0.7364 H         1 <0>         0.1382
     63 H26        11.0111    6.7151    0.4132 H         1 <0>         0.1363
     64 H27         9.8356    4.2490   -0.2859 H         1 <0>         0.4194
     65 H28         8.7233   10.8974    0.1242 H         1 <0>         0.4096
     66 H29         7.2787   12.5675    0.8824 H         1 <0>         0.4002
     67 H30         5.8585   12.1518    1.6779 H         1 <0>         0.4203
     68 H31         0.6387   -6.5090   -4.9000 H         1 <0>         0.4252
@<TRIPOS>BOND
     1    1    6 ar
     2    1    2 ar
     3    1   39 1
     4    2    3 ar
     5    2   40 1
     6    3    4 ar
     7    3   18 1
     8    4    5 ar
     9    4   41 1
    10    5    6 ar
    11    5    7 1
    12    6   42 1
    13    7    8 2
    14    7    9 am
    15    9   10 1
    16    9   43 1
    17   10   11 1
    18   10   44 1
    19   10   45 1
    20   11   12 1
    21   11   46 1
    22   11   47 1
    23   12   17 1
    24   12   13 1
    25   12   68 1
    26   13   14 1
    27   13   48 1
    28   13   49 1
    29   14   15 1
    30   14   50 1
    31   14   51 1
    32   15   16 1
    33   15   52 1
    34   15   53 1
    35   16   17 1
    36   16   54 1
    37   16   55 1
    38   17   56 1
    39   17   57 1
    40   18   23 2
    41   18   19 1
    42   19   20 2
    43   19   58 1
    44   20   21 1
    45   20   24 1
    46   21   22 1
    47   21   23 1
    48   23   59 1
    49   24   25 2
    50   24   60 1
    51   25   33 1
    52   25   26 1
    53   26   31 ar
    54   26   27 ar
    55   27   28 ar
    56   27   61 1
    57   28   29 ar
    58   28   35 1
    59   29   30 ar
    60   29   62 1
    61   30   31 ar
    62   30   63 1
    63   31   32 1
    64   32   33 am
    65   32   64 1
    66   33   34 2
    67   35   36 am
    68   35   65 1
    69   36   37 2
    70   36   38 am
    71   38   66 1
    72   38   67 1
@<TRIPOS>MOLECULE
CHEMBL375236
   41    44     0     0     0
SMALL
USER_CHARGES

@<TRIPOS>ATOM
      1 C1          1.1041    0.3920   -3.5422 C.ar      1 <0>        -0.1644
      2 C2          2.0247    1.2354   -2.9437 C.ar      1 <0>        -0.0817
      3 C3          3.1817    0.6735   -2.3986 C.ar      1 <0>        -0.0464
      4 C4          3.3630   -0.7056   -2.4779 C.ar      1 <0>         0.1013
      5 N1          2.4589   -1.4685   -3.0572 N.ar      1 <0>        -0.4794
      6 C5          1.3569   -0.9669   -3.5807 C.ar      1 <0>         0.0843
      7 C6          4.2017    1.5320   -1.7458 C.2       1 <0>        -0.1495
      8 C7          5.4068    1.0980   -1.1652 C.2       1 <0>        -0.1043
      9 C8          6.0476    2.2237   -0.6779 C.2       1 <0>        -0.0219
     10 N2          5.2532    3.3157   -0.9546 N.pl3     1 <0>        -0.5129
     11 H1          5.4598    4.2350   -0.7242 H         1 <0>         0.4293
     12 C9          4.1446    2.9010   -1.6027 C.2       1 <0>         0.0524
     13 C10         7.2927    2.2491   -0.0152 C.2       1 <0>         0.1095
     14 C11         8.1120    3.3559   -0.1264 C.2       1 <0>        -0.2325
     15 C12         9.5836    3.3741   -0.2815 C.ar      1 <0>        -0.0598
     16 C13        10.5457    2.3723   -0.3587 C.ar      1 <0>        -0.0697
     17 C14        11.8808    2.7134   -0.5065 C.ar      1 <0>         0.1470
     18 C15        12.2517    4.0519   -0.5768 C.ar      1 <0>        -0.1144
     19 C16        11.3009    5.0482   -0.5006 C.ar      1 <0>        -0.1084
     20 C17         9.9569    4.7230   -0.3522 C.ar      1 <0>         0.1133
     21 N3          8.8186    5.5169   -0.2512 N.am      1 <0>        -0.6409
     22 C18         7.7100    4.7684   -0.1228 C.2       1 <0>         0.5643
     23 O1          6.5711    5.1881   -0.0189 O.2       1 <0>        -0.5317
     24 N4         12.8564    1.7102   -0.5847 N.am      1 <0>        -0.6837
     25 C19        12.5777    0.5459   -1.2037 C.2       1 <0>         0.7049
     26 O2         11.4558    0.3327   -1.6213 O.2       1 <0>        -0.5739
     27 N5         13.5425   -0.3822   -1.3597 N.am      1 <0>        -0.8607
     28 H2          0.1962    0.7906   -3.9702 H         1 <0>         0.1351
     29 H3          1.8529    2.3007   -2.8998 H         1 <0>         0.1320
     30 H4          4.2530   -1.1532   -2.0609 H         1 <0>         0.1554
     31 H5          0.6410   -1.6278   -4.0467 H         1 <0>         0.1544
     32 H6          5.7639    0.0802   -1.1098 H         1 <0>         0.1524
     33 H7          3.3436    3.5369   -1.9496 H         1 <0>         0.1728
     34 H8          7.6054    1.4033    0.5791 H         1 <0>         0.1623
     35 H9         10.2537    1.3340   -0.3034 H         1 <0>         0.1489
     36 H10        13.2933    4.3135   -0.6916 H         1 <0>         0.1354
     37 H11        11.6011    6.0841   -0.5559 H         1 <0>         0.1333
     38 H12         8.8243    6.4866   -0.2741 H         1 <0>         0.4191
     39 H13        13.7323    1.8539   -0.1934 H         1 <0>         0.4092
     40 H14        14.4374   -0.2122   -1.0265 H         1 <0>         0.3994
     41 H15        13.3418   -1.2202   -1.8051 H         1 <0>         0.4202
@<TRIPOS>BOND
     1    1    6 ar
     2    1    2 ar
     3    1   28 1
     4    2    3 ar
     5    2   29 1
     6    3    4 ar
     7    3    7 1
     8    4    5 ar
     9    4   30 1
    10    5    6 ar
    11    6   31 1
    12    7   12 2
    13    7    8 1
    14    8    9 2
    15    8   32 1
    16    9   10 1
    17    9   13 1
    18   10   11 1
    19   10   12 1
    20   12   33 1
    21   13   14 2
    22   13   34 1
    23   14   22 1
    24   14   15 1
    25   15   20 ar
    26   15   16 ar
    27   16   17 ar
    28   16   35 1
    29   17   18 ar
    30   17   24 1
    31   18   19 ar
    32   18   36 1
    33   19   20 ar
    34   19   37 1
    35   20   21 1
    36   21   22 am
    37   21   38 1
    38   22   23 2
    39   24   25 am
    40   24   39 1
    41   25   26 2
    42   25   27 am
    43   27   40 1
    44   27   41 1
@<TRIPOS>MOLECULE
CHEMBL259968
   70    76     0     0     0
SMALL
USER_CHARGES

@<TRIPOS>ATOM
      1 C1         -0.0167    1.3791    0.0096 C.ar      1 <0>        -0.1079
      2 C2          1.1686    2.0924    0.0021 C.ar      1 <0>        -0.1123
      3 C3          2.3774    1.4270   -0.0135 C.ar      1 <0>        -0.1018
      4 C4          2.4026    0.0330   -0.0212 C.ar      1 <0>        -0.0545
      5 C5          1.2048   -0.6804   -0.0131 C.ar      1 <0>        -0.0974
      6 C6          0.0021   -0.0041    0.0020 C.ar      1 <0>        -0.1220
      7 C7          3.6978   -0.6876   -0.0384 C.ar      1 <0>        -0.0716
      8 C8          4.6749   -0.3464   -0.9597 C.ar      1 <0>        -0.0428
      9 C9          5.8834   -1.0613   -0.9322 C.ar      1 <0>        -0.0674
     10 C10         6.9330   -0.7869   -1.8264 C.ar      1 <0>        -0.1444
     11 C11         8.0765   -1.5231   -1.7386 C.ar      1 <0>         0.0885
     12 N1          8.2197   -2.4836   -0.8367 N.ar      1 <0>        -0.4663
     13 C12         7.2832   -2.7936    0.0281 C.ar      1 <0>         0.1705
     14 C13         6.0622   -2.0952    0.0243 C.ar      1 <0>         0.0710
     15 N2          5.0898   -2.3850    0.8901 N.ar      1 <0>        -0.4356
     16 C14         3.9489   -1.7255    0.8892 C.ar      1 <0>         0.1892
     17 C15         2.9042   -2.0831    1.8771 C.ar      1 <0>        -0.0102
     18 C16         2.0776   -1.0948    2.4105 C.ar      1 <0>        -0.0826
     19 C17         1.1061   -1.4340    3.3299 C.ar      1 <0>        -0.0997
     20 C18         0.9514   -2.7515    3.7226 C.ar      1 <0>        -0.1501
     21 C19         1.7684   -3.7363    3.1970 C.ar      1 <0>        -0.0960
     22 C20         2.7399   -3.4101    2.2729 C.ar      1 <0>        -0.0758
     23 C21        -0.1112   -3.1152    4.7275 C.3       1 <0>         0.0432
     24 N3         -1.3612   -3.4339    4.0247 N.4       1 <0>        -0.3835
     25 C22        -1.8562   -2.2331    3.3409 C.3       1 <0>        -0.0112
     26 C23        -3.1141   -2.5790    2.5411 C.3       1 <0>        -0.1378
     27 C24        -4.1902   -3.1054    3.4950 C.3       1 <0>         0.0021
     28 C25        -3.6367   -4.3129    4.2570 C.3       1 <0>        -0.1401
     29 C26        -2.3595   -3.9028    4.9933 C.3       1 <0>        -0.0033
     30 C27        -5.4042   -3.5214    2.7049 C.2       1 <0>         0.2198
     31 N4         -6.6230   -3.0083    2.8390 N.2       1 <0>        -0.5190
     32 C28        -7.4490   -3.5955    1.9973 C.2       1 <0>         0.3520
     33 N5         -6.7438   -4.5145    1.2991 N.pl3     1 <0>        -0.4477
     34 H1         -7.0811   -5.1039    0.6066 H         1 <0>         0.4543
     35 N6         -5.4242   -4.4410    1.7743 N.2       1 <0>        -0.3001
     36 C29        -8.8917   -3.3023    1.8436 C.ar      1 <0>         0.1604
     37 C30        -9.4855   -2.3186    2.6335 C.ar      1 <0>        -0.1102
     38 C31       -10.8355   -2.0557    2.4779 C.ar      1 <0>        -0.0738
     39 C32       -11.5483   -2.7852    1.5369 C.ar      1 <0>        -0.1434
     40 C33       -10.8955   -3.7468    0.7870 C.ar      1 <0>         0.1095
     41 N7         -9.6087   -3.9742    0.9510 N.ar      1 <0>        -0.4749
     42 H2         -0.9603    1.9042    0.0260 H         1 <0>         0.1267
     43 H3          1.1478    3.1722    0.0082 H         1 <0>         0.1304
     44 H4          3.3021    1.9849   -0.0200 H         1 <0>         0.1279
     45 H5          1.2183   -1.7603   -0.0194 H         1 <0>         0.1207
     46 H6         -0.9264   -0.5557    0.0079 H         1 <0>         0.1230
     47 H7          4.5120    0.4445   -1.6768 H         1 <0>         0.1519
     48 H8          6.8349   -0.0084   -2.5685 H         1 <0>         0.1473
     49 H9          8.8873   -1.3186   -2.4222 H         1 <0>         0.1654
     50 H10         7.4497   -3.5858    0.7430 H         1 <0>         0.1757
     51 H11         2.1977   -0.0659    2.1050 H         1 <0>         0.1423
     52 H12         0.4655   -0.6695    3.7440 H         1 <0>         0.1348
     53 H13         1.6429   -4.7631    3.5074 H         1 <0>         0.1357
     54 H14         3.3743   -4.1805    1.8599 H         1 <0>         0.1419
     55 H15         0.2138   -3.9825    5.3022 H         1 <0>         0.1391
     56 H16        -0.2773   -2.2744    5.4010 H         1 <0>         0.1375
     57 H17        -2.0947   -1.4675    4.0792 H         1 <0>         0.1331
     58 H18        -1.0880   -1.8579    2.6648 H         1 <0>         0.1363
     59 H19        -3.4811   -1.6858    2.0356 H         1 <0>         0.1151
     60 H20        -2.8766   -3.3445    1.8023 H         1 <0>         0.0960
     61 H21        -4.4648   -2.3227    4.2023 H         1 <0>         0.1175
     62 H22        -4.3772   -4.6590    4.9780 H         1 <0>         0.1164
     63 H23        -3.4101   -5.1144    3.5539 H         1 <0>         0.0966
     64 H24        -1.9628   -4.7602    5.5370 H         1 <0>         0.1360
     65 H25        -2.5872   -3.1016    5.6963 H         1 <0>         0.1338
     66 H26        -8.9005   -1.7699    3.3568 H         1 <0>         0.1515
     67 H27       -11.3233   -1.2999    3.0756 H         1 <0>         0.1489
     68 H28       -12.6031   -2.6041    1.3917 H         1 <0>         0.1481
     69 H29       -11.4478   -4.3164    0.0542 H         1 <0>         0.1699
     70 H30        -1.1879   -4.1586    3.3443 H         1 <0>         0.4235
@<TRIPOS>BOND
     1    1    6 ar
     2    1    2 ar
     3    1   42 1
     4    2    3 ar
     5    2   43 1
     6    3    4 ar
     7    3   44 1
     8    4    5 ar
     9    4    7 1
    10    5    6 ar
    11    5   45 1
    12    6   46 1
    13    7   16 ar
    14    7    8 ar
    15    8    9 ar
    16    8   47 1
    17    9   14 ar
    18    9   10 ar
    19   10   11 ar
    20   10   48 1
    21   11   12 ar
    22   11   49 1
    23   12   13 ar
    24   13   14 ar
    25   13   50 1
    26   14   15 ar
    27   15   16 ar
    28   16   17 1
    29   17   22 ar
    30   17   18 ar
    31   18   19 ar
    32   18   51 1
    33   19   20 ar
    34   19   52 1
    35   20   21 ar
    36   20   23 1
    37   21   22 ar
    38   21   53 1
    39   22   54 1
    40   23   24 1
    41   23   55 1
    42   23   56 1
    43   24   29 1
    44   24   25 1
    45   24   70 1
    46   25   26 1
    47   25   57 1
    48   25   58 1
    49   26   27 1
    50   26   59 1
    51   26   60 1
    52   27   28 1
    53   27   30 1
    54   27   61 1
    55   28   29 1
    56   28   62 1
    57   28   63 1
    58   29   64 1
    59   29   65 1
    60   30   35 2
    61   30   31 1
    62   31   32 2
    63   32   33 1
    64   32   36 1
    65   33   34 1
    66   33   35 1
    67   36   41 ar
    68   36   37 ar
    69   37   38 ar
    70   37   66 1
    71   38   39 ar
    72   38   67 1
    73   39   40 ar
    74   39   68 1
    75   40   41 ar
    76   40   69 1
@<TRIPOS>MOLECULE
CHEMBL259968
   70    76     0     0     0
SMALL
USER_CHARGES

@<TRIPOS>ATOM
      1 C1         -0.0167    1.3791    0.0096 C.ar      1 <0>        -0.1072
      2 C2          1.1686    2.0924    0.0021 C.ar      1 <0>        -0.1117
      3 C3          2.3774    1.4270   -0.0135 C.ar      1 <0>        -0.1015
      4 C4          2.4026    0.0330   -0.0212 C.ar      1 <0>        -0.0549
      5 C5          1.2048   -0.6804   -0.0131 C.ar      1 <0>        -0.0984
      6 C6          0.0021   -0.0041    0.0020 C.ar      1 <0>        -0.1224
      7 C7          3.6978   -0.6876   -0.0384 C.ar      1 <0>        -0.0716
      8 C8          4.6749   -0.3464   -0.9597 C.ar      1 <0>        -0.0425
      9 C9          5.8834   -1.0613   -0.9322 C.ar      1 <0>        -0.0670
     10 C10         6.9330   -0.7869   -1.8264 C.ar      1 <0>        -0.1444
     11 C11         8.0765   -1.5231   -1.7386 C.ar      1 <0>         0.0890
     12 N1          8.2197   -2.4836   -0.8367 N.ar      1 <0>        -0.4660
     13 C12         7.2832   -2.7936    0.0281 C.ar      1 <0>         0.1705
     14 C13         6.0622   -2.0952    0.0243 C.ar      1 <0>         0.0708
     15 N2          5.0898   -2.3850    0.8901 N.ar      1 <0>        -0.4354
     16 C14         3.9489   -1.7255    0.8892 C.ar      1 <0>         0.1878
     17 C15         2.9042   -2.0831    1.8771 C.ar      1 <0>        -0.0082
     18 C16         2.0776   -1.0948    2.4105 C.ar      1 <0>        -0.0821
     19 C17         1.1061   -1.4340    3.3299 C.ar      1 <0>        -0.0995
     20 C18         0.9514   -2.7515    3.7226 C.ar      1 <0>        -0.1523
     21 C19         1.7684   -3.7363    3.1970 C.ar      1 <0>        -0.0963
     22 C20         2.7399   -3.4101    2.2729 C.ar      1 <0>        -0.0763
     23 C21        -0.1112   -3.1152    4.7275 C.3       1 <0>         0.0435
     24 N3         -1.3612   -3.4339    4.0247 N.4       1 <0>        -0.3845
     25 C22        -1.8562   -2.2331    3.3409 C.3       1 <0>        -0.0123
     26 C23        -3.1141   -2.5790    2.5411 C.3       1 <0>        -0.1383
     27 C24        -4.1902   -3.1054    3.4950 C.3       1 <0>        -0.0161
     28 C25        -3.6367   -4.3129    4.2570 C.3       1 <0>        -0.1490
     29 C26        -2.3595   -3.9028    4.9933 C.3       1 <0>        -0.0022
     30 C27        -5.4042   -3.5214    2.7049 C.2       1 <0>         0.2712
     31 N4         -6.4570   -2.7830    2.4743 N.2       1 <0>        -0.4884
     32 C28        -7.3414   -3.4710    1.7395 C.2       1 <0>         0.2883
     33 N5         -6.8487   -4.6658    1.4962 N.2       1 <0>        -0.2780
     34 H1         -4.9696   -5.4631    2.1098 H         1 <0>         0.4404
     35 N6         -5.5871   -4.7150    2.1112 N.pl3     1 <0>        -0.4754
     36 C29        -8.6586   -2.9683    1.2774 C.ar      1 <0>         0.1847
     37 C30        -9.4868   -3.7948    0.5208 C.ar      1 <0>        -0.1315
     38 C31       -10.7128   -3.3121    0.0972 C.ar      1 <0>        -0.0745
     39 C32       -11.0708   -2.0170    0.4447 C.ar      1 <0>        -0.1509
     40 C33       -10.1999   -1.2518    1.1978 C.ar      1 <0>         0.1034
     41 N7         -9.0404   -1.7377    1.5925 N.ar      1 <0>        -0.4470
     42 H2         -0.9603    1.9042    0.0260 H         1 <0>         0.1275
     43 H3          1.1478    3.1722    0.0082 H         1 <0>         0.1309
     44 H4          3.3021    1.9849   -0.0200 H         1 <0>         0.1281
     45 H5          1.2183   -1.7603   -0.0194 H         1 <0>         0.1200
     46 H6         -0.9264   -0.5557    0.0079 H         1 <0>         0.1226
     47 H7          4.5120    0.4445   -1.6768 H         1 <0>         0.1522
     48 H8          6.8349   -0.0084   -2.5685 H         1 <0>         0.1476
     49 H9          8.8873   -1.3186   -2.4222 H         1 <0>         0.1657
     50 H10         7.4497   -3.5858    0.7430 H         1 <0>         0.1757
     51 H11         2.1977   -0.0659    2.1050 H         1 <0>         0.1429
     52 H12         0.4655   -0.6695    3.7440 H         1 <0>         0.1353
     53 H13         1.6429   -4.7631    3.5074 H         1 <0>         0.1353
     54 H14         3.3743   -4.1805    1.8599 H         1 <0>         0.1421
     55 H15         0.2138   -3.9825    5.3022 H         1 <0>         0.1399
     56 H16        -0.2773   -2.2744    5.4010 H         1 <0>         0.1387
     57 H17        -2.0947   -1.4675    4.0792 H         1 <0>         0.1366
     58 H18        -1.0880   -1.8579    2.6648 H         1 <0>         0.1392
     59 H19        -3.4811   -1.6858    2.0356 H         1 <0>         0.1243
     60 H20        -2.8766   -3.3445    1.8023 H         1 <0>         0.0898
     61 H21        -4.4648   -2.3227    4.2023 H         1 <0>         0.1306
     62 H22        -4.3772   -4.6590    4.9780 H         1 <0>         0.1234
     63 H23        -3.4101   -5.1144    3.5539 H         1 <0>         0.0882
     64 H24        -1.9628   -4.7602    5.5370 H         1 <0>         0.1391
     65 H25        -2.5872   -3.1016    5.6963 H         1 <0>         0.1376
     66 H26        -9.1762   -4.7979    0.2681 H         1 <0>         0.1436
     67 H27       -11.3759   -3.9294   -0.4908 H         1 <0>         0.1456
     68 H28       -12.0205   -1.6107    0.1293 H         1 <0>         0.1450
     69 H29       -10.4754   -0.2436    1.4699 H         1 <0>         0.1668
     70 H30        -1.1879   -4.1586    3.3443 H         1 <0>         0.4220
@<TRIPOS>BOND
     1    1    6 ar
     2    1    2 ar
     3    1   42 1
     4    2    3 ar
     5    2   43 1
     6    3    4 ar
     7    3   44 1
     8    4    5 ar
     9    4    7 1
    10    5    6 ar
    11    5   45 1
    12    6   46 1
    13    7   16 ar
    14    7    8 ar
    15    8    9 ar
    16    8   47 1
    17    9   14 ar
    18    9   10 ar
    19   10   11 ar
    20   10   48 1
    21   11   12 ar
    22   11   49 1
    23   12   13 ar
    24   13   14 ar
    25   13   50 1
    26   14   15 ar
    27   15   16 ar
    28   16   17 1
    29   17   22 ar
    30   17   18 ar
    31   18   19 ar
    32   18   51 1
    33   19   20 ar
    34   19   52 1
    35   20   21 ar
    36   20   23 1
    37   21   22 ar
    38   21   53 1
    39   22   54 1
    40   23   24 1
    41   23   55 1
    42   23   56 1
    43   24   29 1
    44   24   25 1
    45   24   70 1
    46   25   26 1
    47   25   57 1
    48   25   58 1
    49   26   27 1
    50   26   59 1
    51   26   60 1
    52   27   28 1
    53   27   61 1
    54   27   30 1
    55   28   29 1
    56   28   62 1
    57   28   63 1
    58   29   64 1
    59   29   65 1
    60   30   31 2
    61   30   35 1
    62   31   32 1
    63   32   36 1
    64   32   33 2
    65   33   35 1
    66   34   35 1
    67   36   41 ar
    68   36   37 ar
    69   37   38 ar
    70   37   66 1
    71   38   39 ar
    72   38   67 1
    73   39   40 ar
    74   39   68 1
    75   40   41 ar
    76   40   69 1
@<TRIPOS>MOLECULE
CHEMBL259982
   71    77     0     0     0
SMALL
USER_CHARGES

@<TRIPOS>ATOM
      1 C1         -0.0167    1.3791    0.0096 C.ar      1 <0>        -0.1096
      2 C2          1.1686    2.0924    0.0021 C.ar      1 <0>        -0.1122
      3 C3          2.3774    1.4269   -0.0129 C.ar      1 <0>        -0.1037
      4 C4          2.4026    0.0330   -0.0206 C.ar      1 <0>        -0.0494
      5 C5          1.2049   -0.6804   -0.0130 C.ar      1 <0>        -0.0992
      6 C6          0.0021   -0.0041    0.0020 C.ar      1 <0>        -0.1213
      7 C7          3.6978   -0.6877   -0.0373 C.ar      1 <0>        -0.0974
      8 C8          4.6763   -0.3476   -0.9576 C.ar      1 <0>        -0.0227
      9 C9          5.8866   -1.0617   -0.9306 C.ar      1 <0>        -0.1489
     10 C10         6.9249   -0.7709   -1.8343 C.ar      1 <0>        -0.0423
     11 C11         8.0755   -1.5042   -1.7522 C.ar      1 <0>        -0.1698
     12 C12         8.1910   -2.5057   -0.7916 C.ar      1 <0>         0.1688
     13 N1          7.2207   -2.7734    0.0487 N.ar      1 <0>        -0.4654
     14 C13         6.0680   -2.0947    0.0240 C.ar      1 <0>         0.3110
     15 N2          5.0919   -2.3827    0.8895 N.ar      1 <0>        -0.4470
     16 C14         3.9497   -1.7249    0.8891 C.ar      1 <0>         0.2187
     17 C15         2.9058   -2.0841    1.8768 C.ar      1 <0>        -0.0132
     18 C16         2.0780   -1.0970    2.4110 C.ar      1 <0>        -0.0803
     19 C17         1.1071   -1.4378    3.3303 C.ar      1 <0>        -0.1007
     20 C18         0.9539   -2.7557    3.7223 C.ar      1 <0>        -0.1484
     21 C19         1.7720   -3.7394    3.1960 C.ar      1 <0>        -0.0967
     22 C20         2.7430   -3.4117    2.2720 C.ar      1 <0>        -0.0724
     23 C21        -0.1081   -3.1211    4.7271 C.3       1 <0>         0.0430
     24 N3         -1.3578   -3.4409    4.0243 N.4       1 <0>        -0.3826
     25 C22        -1.8543   -2.2403    3.3413 C.3       1 <0>        -0.0125
     26 C23        -3.1119   -2.5872    2.5415 C.3       1 <0>        -0.1356
     27 C24        -4.1873   -3.1153    3.4953 C.3       1 <0>        -0.0125
     28 C25        -3.6322   -4.3226    4.2566 C.3       1 <0>        -0.1398
     29 C26        -2.3554   -3.9114    4.9928 C.3       1 <0>        -0.0049
     30 C27        -5.4009   -3.5323    2.7052 C.2       1 <0>         0.0624
     31 C28        -5.5905   -4.7742    2.0998 C.2       1 <0>        -0.2179
     32 C29        -6.8106   -4.7586    1.4845 C.2       1 <0>         0.1385
     33 N4         -7.3613   -3.5313    1.7067 N.pl3     1 <0>        -0.4607
     34 H1         -8.2264   -3.2267    1.3907 H         1 <0>         0.4441
     35 N5         -6.4556   -2.7911    2.4773 N.2       1 <0>        -0.2610
     36 C30        -7.4206   -5.8676    0.7193 C.ar      1 <0>         0.1706
     37 C31        -8.6788   -5.6992    0.1403 C.ar      1 <0>        -0.1597
     38 C32        -9.2360   -6.7458   -0.5723 C.ar      1 <0>        -0.0650
     39 C33        -8.5177   -7.9286   -0.6839 C.ar      1 <0>        -0.1582
     40 C34        -7.2756   -8.0274   -0.0849 C.ar      1 <0>         0.1109
     41 N6         -6.7643   -7.0140    0.5841 N.ar      1 <0>        -0.4636
     42 H2         -0.9603    1.9042    0.0260 H         1 <0>         0.1262
     43 H3          1.1478    3.1722    0.0077 H         1 <0>         0.1297
     44 H4          3.3021    1.9847   -0.0191 H         1 <0>         0.1273
     45 H5          1.2183   -1.7603   -0.0193 H         1 <0>         0.1207
     46 H6         -0.9264   -0.5557    0.0082 H         1 <0>         0.1229
     47 H7          4.5135    0.4431   -1.6750 H         1 <0>         0.1507
     48 H8          6.8159    0.0098   -2.5725 H         1 <0>         0.1479
     49 H9          8.8924   -1.3077   -2.4307 H         1 <0>         0.1508
     50 H10         9.1052   -3.0782   -0.7375 H         1 <0>         0.1737
     51 H11         2.1969   -0.0678    2.1059 H         1 <0>         0.1428
     52 H12         0.4657   -0.6742    3.7449 H         1 <0>         0.1349
     53 H13         1.6480   -4.7664    3.5061 H         1 <0>         0.1361
     54 H14         3.3781   -4.1811    1.8584 H         1 <0>         0.1425
     55 H15         0.2181   -3.9884    5.3013 H         1 <0>         0.1389
     56 H16        -0.2750   -2.2810    5.4012 H         1 <0>         0.1367
     57 H17        -2.0935   -1.4754    4.0800 H         1 <0>         0.1309
     58 H18        -1.0866   -1.8638    2.6652 H         1 <0>         0.1349
     59 H19        -3.4799   -1.6941    2.0366 H         1 <0>         0.1141
     60 H20        -2.8736   -3.3520    1.8023 H         1 <0>         0.0927
     61 H21        -4.4626   -2.3334    4.2030 H         1 <0>         0.1043
     62 H22        -4.3723   -4.6700    4.9775 H         1 <0>         0.1171
     63 H23        -3.4048   -5.1234    3.5529 H         1 <0>         0.0960
     64 H24        -1.9577   -4.7687    5.5360 H         1 <0>         0.1349
     65 H25        -2.5839   -3.1108    5.6963 H         1 <0>         0.1314
     66 H26        -4.8963   -5.6014    2.1146 H         1 <0>         0.1567
     67 H27        -9.2103   -4.7651    0.2473 H         1 <0>         0.1320
     68 H28       -10.2084   -6.6452   -1.0313 H         1 <0>         0.1446
     69 H29        -8.9256   -8.7641   -1.2334 H         1 <0>         0.1452
     70 H30        -6.7148   -8.9464   -0.1702 H         1 <0>         0.1672
     71 H31        -1.1838   -4.1650    3.3435 H         1 <0>         0.4230
@<TRIPOS>BOND
     1    1    6 ar
     2    1    2 ar
     3    1   42 1
     4    2    3 ar
     5    2   43 1
     6    3    4 ar
     7    3   44 1
     8    4    5 ar
     9    4    7 1
    10    5    6 ar
    11    5   45 1
    12    6   46 1
    13    7   16 ar
    14    7    8 ar
    15    8    9 ar
    16    8   47 1
    17    9   14 ar
    18    9   10 ar
    19   10   11 ar
    20   10   48 1
    21   11   12 ar
    22   11   49 1
    23   12   13 ar
    24   12   50 1
    25   13   14 ar
    26   14   15 ar
    27   15   16 ar
    28   16   17 1
    29   17   22 ar
    30   17   18 ar
    31   18   19 ar
    32   18   51 1
    33   19   20 ar
    34   19   52 1
    35   20   21 ar
    36   20   23 1
    37   21   22 ar
    38   21   53 1
    39   22   54 1
    40   23   24 1
    41   23   55 1
    42   23   56 1
    43   24   29 1
    44   24   25 1
    45   24   71 1
    46   25   26 1
    47   25   57 1
    48   25   58 1
    49   26   27 1
    50   26   59 1
    51   26   60 1
    52   27   28 1
    53   27   30 1
    54   27   61 1
    55   28   29 1
    56   28   62 1
    57   28   63 1
    58   29   64 1
    59   29   65 1
    60   30   35 2
    61   30   31 1
    62   31   32 2
    63   31   66 1
    64   32   33 1
    65   32   36 1
    66   33   34 1
    67   33   35 1
    68   36   41 ar
    69   36   37 ar
    70   37   38 ar
    71   37   67 1
    72   38   39 ar
    73   38   68 1
    74   39   40 ar
    75   39   69 1
    76   40   41 ar
    77   40   70 1
@<TRIPOS>MOLECULE
CHEMBL259982
   71    77     0     0     0
SMALL
USER_CHARGES

@<TRIPOS>ATOM
      1 C1         -0.0167    1.3791    0.0096 C.ar      1 <0>        -0.1095
      2 C2          1.1686    2.0924    0.0021 C.ar      1 <0>        -0.1115
      3 C3          2.3774    1.4269   -0.0129 C.ar      1 <0>        -0.1032
      4 C4          2.4026    0.0330   -0.0206 C.ar      1 <0>        -0.0489
      5 C5          1.2049   -0.6804   -0.0130 C.ar      1 <0>        -0.0999
      6 C6          0.0021   -0.0041    0.0020 C.ar      1 <0>        -0.1221
      7 C7          3.6978   -0.6877   -0.0373 C.ar      1 <0>        -0.0982
      8 C8          4.6763   -0.3476   -0.9576 C.ar      1 <0>        -0.0220
      9 C9          5.8866   -1.0617   -0.9306 C.ar      1 <0>        -0.1486
     10 C10         6.9249   -0.7709   -1.8343 C.ar      1 <0>        -0.0423
     11 C11         8.0755   -1.5042   -1.7522 C.ar      1 <0>        -0.1691
     12 C12         8.1910   -2.5057   -0.7916 C.ar      1 <0>         0.1694
     13 N1          7.2207   -2.7734    0.0487 N.ar      1 <0>        -0.4655
     14 C13         6.0680   -2.0947    0.0240 C.ar      1 <0>         0.3110
     15 N2          5.0919   -2.3827    0.8895 N.ar      1 <0>        -0.4466
     16 C14         3.9497   -1.7249    0.8891 C.ar      1 <0>         0.2174
     17 C15         2.9058   -2.0841    1.8768 C.ar      1 <0>        -0.0115
     18 C16         2.0780   -1.0970    2.4110 C.ar      1 <0>        -0.0800
     19 C17         1.1071   -1.4378    3.3303 C.ar      1 <0>        -0.1008
     20 C18         0.9539   -2.7557    3.7223 C.ar      1 <0>        -0.1504
     21 C19         1.7720   -3.7394    3.1960 C.ar      1 <0>        -0.0969
     22 C20         2.7430   -3.4117    2.2720 C.ar      1 <0>        -0.0726
     23 C21        -0.1081   -3.1211    4.7271 C.3       1 <0>         0.0432
     24 N3         -1.3578   -3.4409    4.0243 N.4       1 <0>        -0.3832
     25 C22        -1.8543   -2.2403    3.3413 C.3       1 <0>        -0.0121
     26 C23        -3.1119   -2.5872    2.5415 C.3       1 <0>        -0.1454
     27 C24        -4.1873   -3.1153    3.4953 C.3       1 <0>        -0.0294
     28 C25        -3.6322   -4.3226    4.2566 C.3       1 <0>        -0.1407
     29 C26        -2.3554   -3.9114    4.9928 C.3       1 <0>        -0.0059
     30 C27        -5.4009   -3.5323    2.7052 C.2       1 <0>         0.0664
     31 C28        -6.6863   -3.4132    3.1023 C.2       1 <0>        -0.2081
     32 C29        -7.5049   -3.9189    2.0733 C.2       1 <0>         0.1282
     33 N4         -6.7221   -4.3251    1.0958 N.2       1 <0>        -0.2578
     34 H1         -4.6073   -4.2839    0.9424 H         1 <0>         0.4373
     35 N5         -5.3946   -4.0853    1.4731 N.pl3     1 <0>        -0.4665
     36 C30        -8.9868   -3.9824    2.0885 C.ar      1 <0>         0.1832
     37 C31        -9.6668   -4.5167    0.9958 C.ar      1 <0>        -0.1397
     38 C32       -11.0493   -4.5693    1.0245 C.ar      1 <0>        -0.0740
     39 C33       -11.7077   -4.0853    2.1464 C.ar      1 <0>        -0.1591
     40 C34       -10.9701   -3.5685    3.1950 C.ar      1 <0>         0.1049
     41 N6         -9.6537   -3.5351    3.1444 N.ar      1 <0>        -0.4671
     42 H2         -0.9603    1.9042    0.0260 H         1 <0>         0.1264
     43 H3          1.1478    3.1722    0.0077 H         1 <0>         0.1303
     44 H4          3.3021    1.9847   -0.0191 H         1 <0>         0.1278
     45 H5          1.2183   -1.7603   -0.0193 H         1 <0>         0.1200
     46 H6         -0.9264   -0.5557    0.0082 H         1 <0>         0.1216
     47 H7          4.5135    0.4431   -1.6750 H         1 <0>         0.1510
     48 H8          6.8159    0.0098   -2.5725 H         1 <0>         0.1482
     49 H9          8.8924   -1.3077   -2.4307 H         1 <0>         0.1512
     50 H10         9.1052   -3.0782   -0.7375 H         1 <0>         0.1740
     51 H11         2.1969   -0.0678    2.1059 H         1 <0>         0.1433
     52 H12         0.4657   -0.6742    3.7449 H         1 <0>         0.1350
     53 H13         1.6480   -4.7664    3.5061 H         1 <0>         0.1357
     54 H14         3.3781   -4.1811    1.8584 H         1 <0>         0.1428
     55 H15         0.2181   -3.9884    5.3013 H         1 <0>         0.1395
     56 H16        -0.2750   -2.2810    5.4012 H         1 <0>         0.1379
     57 H17        -2.0935   -1.4754    4.0800 H         1 <0>         0.1343
     58 H18        -1.0866   -1.8638    2.6652 H         1 <0>         0.1368
     59 H19        -3.4799   -1.6941    2.0366 H         1 <0>         0.1191
     60 H20        -2.8736   -3.3520    1.8023 H         1 <0>         0.0842
     61 H21        -4.4626   -2.3334    4.2030 H         1 <0>         0.1175
     62 H22        -4.3723   -4.6700    4.9775 H         1 <0>         0.1216
     63 H23        -3.4048   -5.1234    3.5529 H         1 <0>         0.0884
     64 H24        -1.9577   -4.7687    5.5360 H         1 <0>         0.1358
     65 H25        -2.5839   -3.1108    5.6963 H         1 <0>         0.1344
     66 H26        -7.0262   -3.0034    4.0420 H         1 <0>         0.1591
     67 H27        -9.1225   -4.8842    0.1385 H         1 <0>         0.1411
     68 H28       -11.6036   -4.9776    0.1923 H         1 <0>         0.1420
     69 H29       -12.7861   -4.1118    2.1995 H         1 <0>         0.1423
     70 H30       -11.4794   -3.1911    4.0694 H         1 <0>         0.1646
     71 H31        -1.1838   -4.1650    3.3435 H         1 <0>         0.4217
@<TRIPOS>BOND
     1    1    6 ar
     2    1    2 ar
     3    1   42 1
     4    2    3 ar
     5    2   43 1
     6    3    4 ar
     7    3   44 1
     8    4    5 ar
     9    4    7 1
    10    5    6 ar
    11    5   45 1
    12    6   46 1
    13    7   16 ar
    14    7    8 ar
    15    8    9 ar
    16    8   47 1
    17    9   14 ar
    18    9   10 ar
    19   10   11 ar
    20   10   48 1
    21   11   12 ar
    22   11   49 1
    23   12   13 ar
    24   12   50 1
    25   13   14 ar
    26   14   15 ar
    27   15   16 ar
    28   16   17 1
    29   17   22 ar
    30   17   18 ar
    31   18   19 ar
    32   18   51 1
    33   19   20 ar
    34   19   52 1
    35   20   21 ar
    36   20   23 1
    37   21   22 ar
    38   21   53 1
    39   22   54 1
    40   23   24 1
    41   23   55 1
    42   23   56 1
    43   24   29 1
    44   24   25 1
    45   24   71 1
    46   25   26 1
    47   25   57 1
    48   25   58 1
    49   26   27 1
    50   26   59 1
    51   26   60 1
    52   27   28 1
    53   27   61 1
    54   27   30 1
    55   28   29 1
    56   28   62 1
    57   28   63 1
    58   29   64 1
    59   29   65 1
    60   30   31 2
    61   30   35 1
    62   31   32 1
    63   31   66 1
    64   32   33 2
    65   32   36 1
    66   33   35 1
    67   34   35 1
    68   36   41 ar
    69   36   37 ar
    70   37   38 ar
    71   37   67 1
    72   38   39 ar
    73   38   68 1
    74   39   40 ar
    75   39   69 1
    76   40   41 ar
    77   40   70 1
@<TRIPOS>MOLECULE
CHEMBL498051
   47    50     0     0     0
SMALL
USER_CHARGES

@<TRIPOS>ATOM
      1 C1         -0.2011    0.7877   -1.7735 C.2       1 <0>        -0.2126
      2 C2          1.0307    1.0169   -2.2602 C.2       1 <0>         0.0887
      3 N1          1.9240    0.1502   -1.6910 N.pl3     1 <0>        -0.5766
      4 H1          2.8741    0.1236   -1.8845 H         1 <0>         0.4275
      5 C3          1.2763   -0.6769   -0.8042 C.ar      1 <0>         0.2905
      6 C4         -0.0823   -0.3115   -0.8193 C.ar      1 <0>        -0.1240
      7 C5         -0.9922   -1.0029    0.0055 C.ar      1 <0>         0.0339
      8 C6         -0.4906   -2.0319    0.8084 C.ar      1 <0>        -0.1462
      9 C7          0.8590   -2.3265    0.7623 C.ar      1 <0>         0.1428
     10 N2          1.6874   -1.6634   -0.0182 N.ar      1 <0>        -0.4750
     11 C8         -2.4246   -0.6527    0.0215 C.2       1 <0>        -0.0131
     12 C9         -3.5275   -1.4903   -0.0615 C.2       1 <0>        -0.1498
     13 C10        -4.7765   -0.9367   -0.0262 C.2       1 <0>        -0.0182
     14 C11        -4.8916    0.4412    0.0913 C.2       1 <0>        -0.2786
     15 S1         -3.1840    0.9570    0.1604 S.3       1 <0>         0.1730
     16 C12        -6.1045    1.2621    0.1495 C.2       1 <0>         0.6132
     17 O1         -7.1998    0.7345    0.0929 O.2       1 <0>        -0.5334
     18 N3         -6.0068    2.6013    0.2658 N.am      1 <0>        -0.7319
     19 C13        -7.2190    3.4218    0.3241 C.3       1 <0>         0.1230
     20 H2         -7.9983    2.8812    0.8612 H         1 <0>         0.1244
     21 C14        -6.9133    4.7324    1.0519 C.3       1 <0>        -0.0853
     22 C15        -6.5609    4.4394    2.4875 C.ar      1 <0>        -0.0562
     23 C16        -7.5434    4.3956    3.4648 C.ar      1 <0>        -0.1664
     24 C17        -7.1825    4.1239    4.7709 C.ar      1 <0>         0.1099
     25 N4         -5.9216    3.9083    5.0914 N.ar      1 <0>        -0.4758
     26 C18        -4.9611    3.9420    4.1885 C.ar      1 <0>         0.1093
     27 C19        -5.2471    4.2014    2.8615 C.ar      1 <0>        -0.1694
     28 C20        -7.6970    3.7271   -1.0969 C.3       1 <0>        -0.0216
     29 N5         -7.8760    2.4692   -1.8342 N.4       1 <0>        -0.6347
     30 Br1        -3.3069   -3.3616   -0.2210 Br        1 <0>         0.0021
     31 H3         -1.1050    1.3181   -2.0346 H         1 <0>         0.1487
     32 H4          1.2785    1.7721   -2.9914 H         1 <0>         0.1855
     33 H5         -1.1498   -2.5896    1.4571 H         1 <0>         0.1470
     34 H6          1.2448   -3.1215    1.3832 H         1 <0>         0.1743
     35 H7         -5.6567   -1.5594   -0.0888 H         1 <0>         0.1601
     36 H8         -5.1338    3.0218    0.3109 H         1 <0>         0.4148
     37 H9         -6.0742    5.2306    0.5662 H         1 <0>         0.0980
     38 H10        -7.7894    5.3799    1.0178 H         1 <0>         0.1117
     39 H11        -8.5777    4.5721    3.2087 H         1 <0>         0.1379
     40 H12        -7.9418    4.0881    5.5381 H         1 <0>         0.1612
     41 H13        -3.9397    3.7607    4.4888 H         1 <0>         0.1595
     42 H14        -4.4567    4.2227    2.1258 H         1 <0>         0.1308
     43 H15        -8.6461    4.2614   -1.0541 H         1 <0>         0.1525
     44 H16        -6.9556    4.3437   -1.6050 H         1 <0>         0.1406
     45 H17        -6.9974    1.9747   -1.8739 H         1 <0>         0.4270
     46 H18        -8.5623    1.8985   -1.3639 H         1 <0>         0.4431
     47 H19        -8.1912    2.6706   -2.7713 H         1 <0>         0.4379
@<TRIPOS>BOND
     1    1    6 1
     2    1    2 2
     3    1   31 1
     4    2    3 1
     5    2   32 1
     6    3    4 1
     7    3    5 1
     8    5   10 ar
     9    5    6 ar
    10    6    7 ar
    11    7    8 ar
    12    7   11 1
    13    8    9 ar
    14    8   33 1
    15    9   10 ar
    16    9   34 1
    17   11   15 1
    18   11   12 2
    19   12   13 1
    20   12   30 1
    21   13   14 2
    22   13   35 1
    23   14   15 1
    24   14   16 1
    25   16   17 2
    26   16   18 am
    27   18   19 1
    28   18   36 1
    29   19   20 1
    30   19   21 1
    31   19   28 1
    32   21   22 1
    33   21   37 1
    34   21   38 1
    35   22   27 ar
    36   22   23 ar
    37   23   24 ar
    38   23   39 1
    39   24   25 ar
    40   24   40 1
    41   25   26 ar
    42   26   27 ar
    43   26   41 1
    44   27   42 1
    45   28   29 1
    46   28   43 1
    47   28   44 1
    48   29   45 1
    49   29   46 1
    50   29   47 1
@<TRIPOS>MOLECULE
CHEMBL1096290
   55    58     0     0     0
SMALL
USER_CHARGES

@<TRIPOS>ATOM
      1 C1         -0.0187    1.5258    0.0104 C.3       1 <0>        -0.1687
      2 C2          0.0021   -0.0041    0.0020 C.3       1 <0>         0.0898
      3 N1          0.6878   -0.4765   -1.2033 N.pl3     1 <0>        -0.4486
      4 C3          0.1086   -0.7448   -2.4207 C.ar      1 <0>         0.0884
      5 C4         -1.1845   -0.6852   -2.9303 C.ar      1 <0>        -0.1133
      6 C5         -1.4044   -1.0413   -4.2449 C.ar      1 <0>         0.0632
      7 N2         -0.4160   -1.4362   -5.0265 N.ar      1 <0>        -0.4569
      8 C6          0.8373   -1.5137   -4.5989 C.ar      1 <0>         0.3419
      9 C7          1.1508   -1.1684   -3.2690 C.ar      1 <0>         0.0478
     10 N3          2.2863   -1.1397   -2.5500 N.2       1 <0>        -0.4394
     11 C8          2.0287   -0.7287   -1.3317 C.2       1 <0>         0.3602
     12 C9          3.0327   -0.5650   -0.2579 C.2       1 <0>         0.1203
     13 C10         4.4728   -0.8247   -0.3792 C.2       1 <0>         0.3636
     14 N4          5.0335   -0.5696    0.7708 N.2       1 <0>        -0.3375
     15 O1          4.0209   -0.1459    1.6660 O.3       1 <0>         0.0578
     16 N5          2.7916   -0.1585    0.9622 N.2       1 <0>        -0.2405
     17 N6          5.1261   -1.2663   -1.5222 N.pl3     1 <0>        -0.8014
     18 C11         1.8717   -1.9488   -5.4884 C.1       1 <0>        -0.1459
     19 C12         2.7197   -2.3055   -6.2177 C.1       1 <0>        -0.0944
     20 C13         3.7830   -2.7528   -7.1322 C.3       1 <0>         0.2363
     21 C14         5.1235   -2.7521   -6.3947 C.3       1 <0>        -0.1784
     22 C15         3.4716   -4.1681   -7.6229 C.3       1 <0>        -0.1403
     23 O2          3.8539   -1.8658   -8.2503 O.3       1 <0>        -0.5417
     24 C16        -2.8036   -0.9787   -4.8010 C.3       1 <0>         0.0667
     25 N7         -3.0042    0.3094   -5.4782 N.4       1 <0>        -0.3942
     26 C17        -2.1789    0.3737   -6.7114 C.3       1 <0>         0.0009
     27 C18        -2.8928    1.4559   -7.5597 C.3       1 <0>        -0.1461
     28 C19        -4.3880    1.1947   -7.2661 C.3       1 <0>        -0.1442
     29 C20        -4.4082    0.4372   -5.9255 C.3       1 <0>        -0.0079
     30 H1          1.0039    1.9031    0.0027 H         1 <0>         0.0678
     31 H2         -0.5459    1.8868   -0.8726 H         1 <0>         0.0617
     32 H3         -0.5289    1.8773    0.9072 H         1 <0>         0.0939
     33 H4          0.5293   -0.3651    0.8851 H         1 <0>         0.1168
     34 H5         -1.0205   -0.3814    0.0098 H         1 <0>         0.1054
     35 H6         -2.0050   -0.3649   -2.3053 H         1 <0>         0.1515
     36 H7          4.6233   -1.4303   -2.3354 H         1 <0>         0.4288
     37 H8          6.0851   -1.4108   -1.5075 H         1 <0>         0.4224
     38 H9          5.0694   -3.4287   -5.5418 H         1 <0>         0.0750
     39 H10         5.9109   -3.0833   -7.0718 H         1 <0>         0.0831
     40 H11         5.3453   -1.7438   -6.0451 H         1 <0>         0.0658
     41 H12         2.5166   -4.1686   -8.1483 H         1 <0>         0.0690
     42 H13         4.2590   -4.4993   -8.3001 H         1 <0>         0.0820
     43 H14         3.4175   -4.8447   -6.7701 H         1 <0>         0.0776
     44 H15         4.0486   -0.9487   -8.0131 H         1 <0>         0.3829
     45 H16        -2.9478   -1.7904   -5.5141 H         1 <0>         0.1497
     46 H17        -3.5226   -1.0776   -3.9878 H         1 <0>         0.1466
     47 H18        -1.1594    0.6797   -6.4765 H         1 <0>         0.1295
     48 H19        -2.1842   -0.5858   -7.2284 H         1 <0>         0.1396
     49 H20        -2.6043    2.4549   -7.2326 H         1 <0>         0.0955
     50 H21        -2.6782    1.3189   -8.6196 H         1 <0>         0.1172
     51 H22        -4.9263    2.1382   -7.1756 H         1 <0>         0.1048
     52 H23        -4.8268    0.5819   -8.0535 H         1 <0>         0.1050
     53 H24        -4.8451   -0.5517   -6.0643 H         1 <0>         0.1336
     54 H25        -4.9826    0.9999   -5.1896 H         1 <0>         0.1331
     55 H26        -2.7659    1.0694   -4.8588 H         1 <0>         0.4240
@<TRIPOS>BOND
     1    1    2 1
     2    1   30 1
     3    1   31 1
     4    1   32 1
     5    2    3 1
     6    2   33 1
     7    2   34 1
     8    3   11 1
     9    3    4 1
    10    4    9 ar
    11    4    5 ar
    12    5    6 ar
    13    5   35 1
    14    6    7 ar
    15    6   24 1
    16    7    8 ar
    17    8    9 ar
    18    8   18 1
    19    9   10 1
    20   10   11 2
    21   11   12 1
    22   12   16 2
    23   12   13 1
    24   13   14 2
    25   13   17 1
    26   14   15 1
    27   15   16 1
    28   17   36 1
    29   17   37 1
    30   18   19 3
    31   19   20 1
    32   20   21 1
    33   20   22 1
    34   20   23 1
    35   21   38 1
    36   21   39 1
    37   21   40 1
    38   22   41 1
    39   22   42 1
    40   22   43 1
    41   23   44 1
    42   24   25 1
    43   24   45 1
    44   24   46 1
    45   25   29 1
    46   25   26 1
    47   25   55 1
    48   26   27 1
    49   26   47 1
    50   26   48 1
    51   27   28 1
    52   27   49 1
    53   27   50 1
    54   28   29 1
    55   28   51 1
    56   28   52 1
    57   29   53 1
    58   29   54 1
@<TRIPOS>MOLECULE
CHEMBL598013
   45    48     0     0     0
SMALL
USER_CHARGES

@<TRIPOS>ATOM
      1 C1         -0.0167    1.3782    0.0096 C.ar      1 <0>        -0.0946
      2 C2          1.1706    2.0858    0.0021 C.ar      1 <0>        -0.0973
      3 C3          2.3780    1.4104   -0.0130 C.ar      1 <0>        -0.0247
      4 C4          2.3961    0.0270   -0.0206 C.ar      1 <0>        -0.0989
      5 C5          1.2082   -0.6795   -0.0130 C.ar      1 <0>        -0.1287
      6 C6          0.0021   -0.0041    0.0020 C.ar      1 <0>        -0.1223
      7 C7         -1.2928   -0.7750    0.0107 C.3       1 <0>        -0.0978
      8 C8         -1.7453   -1.0281   -1.4288 C.3       1 <0>         0.0689
      9 C9         -1.9515    0.3105   -2.1413 C.3       1 <0>        -0.1559
     10 C10        -2.9982    1.1324   -1.3825 C.3       1 <0>         0.1446
     11 N1         -4.2202    0.3286   -1.2429 N.pl3     1 <0>        -0.6718
     12 C11        -4.1196   -1.0132   -0.6527 C.3       1 <0>         0.1449
     13 C12        -3.0603   -1.8110   -1.4197 C.3       1 <0>        -0.1508
     14 C13        -5.4436    0.8264   -1.6591 C.ar      1 <0>         0.2836
     15 C14        -5.9044    0.6217   -2.9495 C.ar      1 <0>        -0.2178
     16 C15        -7.1346    1.1304   -3.3429 C.ar      1 <0>         0.1988
     17 N2         -7.9181    1.8159   -2.5497 N.ar      1 <0>        -0.4675
     18 C16        -7.5868    2.0829   -1.2756 C.ar      1 <0>         0.2729
     19 C17        -6.3049    1.5844   -0.7534 C.ar      1 <0>        -0.2716
     20 C18        -6.2272    1.9912    0.5614 C.2       1 <0>         0.1078
     21 N3         -7.3452    2.6719    0.8461 N.pl3     1 <0>        -0.4101
     22 N4         -8.1682    2.7317   -0.2842 N.2       1 <0>        -0.2756
     23 H1         -7.5501    3.0714    1.7059 H         1 <0>         0.4522
     24 N5         -0.7180   -1.8051   -2.1352 N.4       1 <0>        -0.6366
     25 Cl1         3.8696    2.2984   -0.0231 Cl        1 <0>        -0.0431
     26 H2         -0.9592    1.9053    0.0259 H         1 <0>         0.1396
     27 H3          1.1558    3.1656    0.0076 H         1 <0>         0.1437
     28 H4          3.3383   -0.5007   -0.0327 H         1 <0>         0.1432
     29 H5          1.2222   -1.7594   -0.0193 H         1 <0>         0.1325
     30 H6         -1.1447   -1.7283    0.5180 H         1 <0>         0.1026
     31 H7         -2.0551   -0.1989    0.5352 H         1 <0>         0.1245
     32 H8         -1.0090    0.8574   -2.1680 H         1 <0>         0.0984
     33 H9         -2.2976    0.1313   -3.1592 H         1 <0>         0.0958
     34 H10        -2.6152    1.3896   -0.3950 H         1 <0>         0.0679
     35 H11        -3.2213    2.0429   -1.9387 H         1 <0>         0.0940
     36 H12        -3.8280   -0.9309    0.3943 H         1 <0>         0.0692
     37 H13        -5.0825   -1.5183   -0.7274 H         1 <0>         0.0947
     38 H14        -3.3960   -1.9702   -2.4444 H         1 <0>         0.0966
     39 H15        -2.9069   -2.7740   -0.9328 H         1 <0>         0.0985
     40 H16        -5.3036    0.0641   -3.6526 H         1 <0>         0.1367
     41 H17        -7.4621    0.9516   -4.3564 H         1 <0>         0.1669
     42 H18        -5.4108    1.7956    1.2408 H         1 <0>         0.1869
     43 H19        -0.5814   -2.6875   -1.6654 H         1 <0>         0.4330
     44 H20        -1.0163   -1.9721   -3.0846 H         1 <0>         0.4351
     45 H21         0.1491   -1.2893   -2.1409 H         1 <0>         0.4316
@<TRIPOS>BOND
     1    1    6 ar
     2    1    2 ar
     3    1   26 1
     4    2    3 ar
     5    2   27 1
     6    3    4 ar
     7    3   25 1
     8    4    5 ar
     9    4   28 1
    10    5    6 ar
    11    5   29 1
    12    6    7 1
    13    7    8 1
    14    7   30 1
    15    7   31 1
    16    8   13 1
    17    8    9 1
    18    8   24 1
    19    9   10 1
    20    9   32 1
    21    9   33 1
    22   10   11 1
    23   10   34 1
    24   10   35 1
    25   11   12 1
    26   11   14 1
    27   12   13 1
    28   12   36 1
    29   12   37 1
    30   13   38 1
    31   13   39 1
    32   14   19 ar
    33   14   15 ar
    34   15   16 ar
    35   15   40 1
    36   16   17 ar
    37   16   41 1
    38   17   18 ar
    39   18   19 ar
    40   18   22 2
    41   19   20 2
    42   20   42 1
    43   20   21 1
    44   21   23 1
    45   21   22 1
    46   24   43 1
    47   24   44 1
    48   24   45 1
@<TRIPOS>MOLECULE
CHEMBL598842
   48    51     0     0     0
SMALL
USER_CHARGES

@<TRIPOS>ATOM
      1 C1         -0.4028    1.8008   -0.1859 C.ar      1 <0>        -0.0836
      2 C2          0.6823    2.6544   -0.2519 C.ar      1 <0>        -0.1096
      3 C3          1.9663    2.1398   -0.2766 C.ar      1 <0>        -0.0215
      4 C4          2.1633    0.7710   -0.2352 C.ar      1 <0>        -0.1121
      5 C5          1.0775   -0.0815   -0.1692 C.ar      1 <0>        -0.0882
      6 C6         -0.2053    0.4332   -0.1446 C.ar      1 <0>        -0.1206
      7 C7         -1.3888   -0.4969   -0.0722 C.3       1 <0>         0.1601
      8 N1         -1.8188   -0.8466   -1.4283 N.am      1 <0>        -0.7249
      9 C8         -2.8677   -1.6731   -1.6106 C.2       1 <0>         0.5022
     10 O1         -3.4557   -2.1272   -0.6519 O.2       1 <0>        -0.4569
     11 C9         -3.3100   -2.0329   -3.0055 C.3       1 <0>         0.0495
     12 C10        -4.1752   -0.9052   -3.5729 C.3       1 <0>        -0.1485
     13 C11        -5.3869   -0.6885   -2.6609 C.3       1 <0>         0.1524
     14 N2         -6.0921   -1.9673   -2.4996 N.pl3     1 <0>        -0.6474
     15 C12        -5.3328   -3.1404   -2.0457 C.3       1 <0>         0.1322
     16 C13        -4.1217   -3.3296   -2.9645 C.3       1 <0>        -0.1362
     17 C14        -7.4483   -2.0652   -2.7702 C.ar      1 <0>         0.3936
     18 C15        -8.3924   -1.8335   -1.7711 C.ar      1 <0>        -0.0725
     19 C16        -9.7551   -1.9440   -2.0930 C.ar      1 <0>         0.3474
     20 N3        -10.4495   -1.6761   -0.9714 N.2       1 <0>        -0.5830
     21 C17        -9.6233   -1.4106    0.0110 C.2       1 <0>         0.5799
     22 O2         -9.9920   -1.1001    1.2741 O.3       1 <0>        -0.6714
     23 N4         -8.3380   -1.4945   -0.4310 N.pl3     1 <0>        -0.6316
     24 N5        -10.0934   -2.2667   -3.3460 N.ar      1 <0>        -0.5171
     25 C18        -9.1674   -2.4759   -4.2558 C.ar      1 <0>         0.2908
     26 N6         -7.8776   -2.3769   -3.9912 N.ar      1 <0>        -0.5667
     27 N7         -2.1298   -2.2210   -3.8599 N.4       1 <0>        -0.6324
     28 Cl1         3.3297    3.2113   -0.3601 Cl        1 <0>        -0.0556
     29 H1         -1.4051    2.2025   -0.1621 H         1 <0>         0.1374
     30 H2          0.5278    3.7228   -0.2846 H         1 <0>         0.1402
     31 H3          3.1654    0.3688   -0.2549 H         1 <0>         0.1389
     32 H4          1.2311   -1.1500   -0.1373 H         1 <0>         0.1345
     33 H5         -1.1068   -1.4027    0.4645 H         1 <0>         0.0912
     34 H6         -2.2070   -0.0036    0.4525 H         1 <0>         0.0924
     35 H7         -1.3485   -0.4834   -2.1950 H         1 <0>         0.3922
     36 H8         -3.5893    0.0126   -3.6236 H         1 <0>         0.0941
     37 H9         -4.5158   -1.1756   -4.5723 H         1 <0>         0.1112
     38 H10        -5.0521   -0.3305   -1.6873 H         1 <0>         0.0610
     39 H11        -6.0568    0.0439   -3.1113 H         1 <0>         0.0933
     40 H12        -4.9936   -2.9824   -1.0220 H         1 <0>         0.1058
     41 H13        -5.9670   -4.0258   -2.0901 H         1 <0>         0.0851
     42 H14        -4.4628   -3.5772   -3.9697 H         1 <0>         0.1033
     43 H15        -3.4977   -4.1375   -2.5823 H         1 <0>         0.0946
     44 H16        -9.4735   -2.7353   -5.2585 H         1 <0>         0.1862
     45 H17        -1.5588   -2.9640   -3.4858 H         1 <0>         0.4368
     46 H18        -2.4258   -2.4619   -4.7939 H         1 <0>         0.4433
     47 H19        -1.5943   -1.3663   -3.8867 H         1 <0>         0.4271
     48 H20        -7.5363   -1.3451    0.0943 H         1 <0>         0.4034
@<TRIPOS>BOND
     1    1    6 ar
     2    1    2 ar
     3    1   29 1
     4    2    3 ar
     5    2   30 1
     6    3    4 ar
     7    3   28 1
     8    4    5 ar
     9    4   31 1
    10    5    6 ar
    11    5   32 1
    12    6    7 1
    13    7    8 1
    14    7   33 1
    15    7   34 1
    16    8    9 am
    17    8   35 1
    18    9   10 2
    19    9   11 1
    20   11   16 1
    21   11   12 1
    22   11   27 1
    23   12   13 1
    24   12   36 1
    25   12   37 1
    26   13   14 1
    27   13   38 1
    28   13   39 1
    29   14   15 1
    30   14   17 1
    31   15   16 1
    32   15   40 1
    33   15   41 1
    34   16   42 1
    35   16   43 1
    36   17   26 ar
    37   17   18 ar
    38   18   23 1
    39   18   19 ar
    40   19   20 1
    41   19   24 ar
    42   20   21 2
    43   21   23 1
    44   21   22 1
    45   23   48 1
    46   24   25 ar
    47   25   44 1
    48   25   26 ar
    49   27   45 1
    50   27   46 1
    51   27   47 1
@<TRIPOS>MOLECULE
CHEMBL598842
   48    51     0     0     0
SMALL
USER_CHARGES

@<TRIPOS>ATOM
      1 C1         -0.4516    1.6734    0.1216 C.ar      1 <0>        -0.0828
      2 C2          0.6183    2.5485    0.1291 C.ar      1 <0>        -0.1091
      3 C3          1.9107    2.0613    0.0494 C.ar      1 <0>        -0.0218
      4 C4          2.1314    0.6983   -0.0378 C.ar      1 <0>        -0.1129
      5 C5          1.0608   -0.1758   -0.0452 C.ar      1 <0>        -0.0887
      6 C6         -0.2304    0.3116    0.0345 C.ar      1 <0>        -0.1204
      7 C7         -1.3973   -0.6420    0.0268 C.3       1 <0>         0.1608
      8 N1         -1.8310   -0.8719   -1.3535 N.am      1 <0>        -0.7250
      9 C8         -2.8670   -1.6963   -1.6059 C.2       1 <0>         0.5064
     10 O1         -3.4401   -2.2478   -0.6903 O.2       1 <0>        -0.4606
     11 C9         -3.3132   -1.9327   -3.0258 C.3       1 <0>         0.0426
     12 C10        -4.2032   -0.7736   -3.4802 C.3       1 <0>        -0.1429
     13 C11        -5.4116   -0.6659   -2.5450 C.3       1 <0>         0.1031
     14 N2         -6.0921   -1.9673   -2.4996 N.pl3     1 <0>        -0.5972
     15 C12        -5.3080   -3.1630   -2.1617 C.3       1 <0>         0.1108
     16 C13        -4.1007   -3.2428   -3.1012 C.3       1 <0>        -0.1346
     17 C14        -7.4472   -2.0651   -2.7700 C.ar      1 <0>         0.4300
     18 C15        -8.1754   -0.9459   -3.2055 C.ar      1 <0>        -0.0278
     19 C16        -9.5463   -1.1060   -3.4637 C.ar      1 <0>         0.2575
     20 N3        -10.0049    0.1257   -3.8685 N.pl3     1 <0>        -0.6198
     21 H1        -10.9157    0.3448   -4.1202 H         1 <0>         0.4102
     22 C17        -8.9423    0.9842   -3.8503 C.2       1 <0>         0.5625
     23 O2         -8.9948    2.2943   -4.1855 O.3       1 <0>        -0.6878
     24 N4         -7.8671    0.3507   -3.4597 N.2       1 <0>        -0.5977
     25 N5        -10.1015   -2.3004   -3.2882 N.ar      1 <0>        -0.5373
     26 C18        -9.3798   -3.3222   -2.8778 C.ar      1 <0>         0.2858
     27 N6         -8.0869   -3.2213   -2.6285 N.ar      1 <0>        -0.5789
     28 N7         -2.1363   -2.0180   -3.9008 N.4       1 <0>        -0.6324
     29 Cl1         3.2549    3.1598    0.0582 Cl        1 <0>        -0.0566
     30 H2         -1.4603    2.0533    0.1884 H         1 <0>         0.1386
     31 H3          0.4453    3.6124    0.1968 H         1 <0>         0.1405
     32 H4          3.1401    0.3174   -0.1004 H         1 <0>         0.1383
     33 H5          1.2330   -1.2398   -0.1136 H         1 <0>         0.1341
     34 H6         -1.0958   -1.5886    0.4754 H         1 <0>         0.0904
     35 H7         -2.2199   -0.2141    0.5997 H         1 <0>         0.0919
     36 H8         -1.3727   -0.4308   -2.0857 H         1 <0>         0.3929
     37 H9         -3.6346    0.1558   -3.4485 H         1 <0>         0.0984
     38 H10        -4.5464   -0.9561   -4.4986 H         1 <0>         0.1069
     39 H11        -5.0761   -0.3940   -1.5442 H         1 <0>         0.0595
     40 H12        -6.0983    0.0925   -2.9210 H         1 <0>         0.1689
     41 H13        -4.9640   -3.0948   -1.1296 H         1 <0>         0.1076
     42 H14        -5.9262   -4.0523   -2.2849 H         1 <0>         0.1087
     43 H15        -4.4448   -3.4020   -4.1232 H         1 <0>         0.0980
     44 H16        -3.4591   -4.0708   -2.7998 H         1 <0>         0.0964
     45 H17        -9.8620   -4.2794   -2.7448 H         1 <0>         0.1882
     46 H18        -1.5490   -2.7818   -3.6011 H         1 <0>         0.4349
     47 H19        -2.4349   -2.1763   -4.8515 H         1 <0>         0.4427
     48 H20        -1.6167   -1.1545   -3.8508 H         1 <0>         0.4277
@<TRIPOS>BOND
     1    1    6 ar
     2    1    2 ar
     3    1   30 1
     4    2    3 ar
     5    2   31 1
     6    3    4 ar
     7    3   29 1
     8    4    5 ar
     9    4   32 1
    10    5    6 ar
    11    5   33 1
    12    6    7 1
    13    7    8 1
    14    7   34 1
    15    7   35 1
    16    8    9 am
    17    8   36 1
    18    9   10 2
    19    9   11 1
    20   11   16 1
    21   11   12 1
    22   11   28 1
    23   12   13 1
    24   12   37 1
    25   12   38 1
    26   13   14 1
    27   13   39 1
    28   13   40 1
    29   14   15 1
    30   14   17 1
    31   15   16 1
    32   15   41 1
    33   15   42 1
    34   16   43 1
    35   16   44 1
    36   17   27 ar
    37   17   18 ar
    38   18   24 1
    39   18   19 ar
    40   19   20 1
    41   19   25 ar
    42   20   21 1
    43   20   22 1
    44   22   23 1
    45   22   24 2
    46   25   26 ar
    47   26   27 ar
    48   26   45 1
    49   28   46 1
    50   28   47 1
    51   28   48 1
@<TRIPOS>MOLECULE
CHEMBL598842
   49    52     0     0     0
SMALL
USER_CHARGES

@<TRIPOS>ATOM
      1 C1         -0.4028    1.8009   -0.1862 C.ar      1 <0>        -0.0842
      2 C2          0.6823    2.6545   -0.2523 C.ar      1 <0>        -0.1097
      3 C3          1.9664    2.1399   -0.2770 C.ar      1 <0>        -0.0192
      4 C4          2.1634    0.7711   -0.2355 C.ar      1 <0>        -0.1109
      5 C5          1.0775   -0.0814   -0.1694 C.ar      1 <0>        -0.0873
      6 C6         -0.2053    0.4333   -0.1448 C.ar      1 <0>        -0.1270
      7 C7         -1.3888   -0.4967   -0.0723 C.3       1 <0>         0.1616
      8 N1         -1.8188   -0.8466   -1.4283 N.am      1 <0>        -0.7204
      9 C8         -2.8677   -1.6730   -1.6106 C.2       1 <0>         0.5023
     10 O1         -3.4557   -2.1271   -0.6519 O.2       1 <0>        -0.4654
     11 C9         -3.3100   -2.0330   -3.0055 C.3       1 <0>         0.0478
     12 C10        -4.1752   -0.9053   -3.5730 C.3       1 <0>        -0.1506
     13 C11        -5.3869   -0.6885   -2.6611 C.3       1 <0>         0.1490
     14 N2         -6.0921   -1.9673   -2.4996 N.pl3     1 <0>        -0.6554
     15 C12        -5.3328   -3.1404   -2.0456 C.3       1 <0>         0.1285
     16 C13        -4.1217   -3.3297   -2.9644 C.3       1 <0>        -0.1379
     17 C14        -7.4493   -2.0652   -2.7704 C.ar      1 <0>         0.4291
     18 C15        -8.3935   -1.8335   -1.7709 C.ar      1 <0>        -0.0043
     19 C16        -9.7469   -1.9442   -2.0925 C.ar      1 <0>         0.3555
     20 N3        -10.4571   -1.6678   -0.9382 N.am      1 <0>        -0.6183
     21 H1        -11.4234   -1.6677   -0.8546 H         1 <0>         0.4482
     22 C17        -9.5826   -1.3990    0.0501 C.2       1 <0>         0.6923
     23 O2         -9.8828   -1.1161    1.1949 O.2       1 <0>        -0.5227
     24 N4         -8.3241   -1.4913   -0.4231 N.am      1 <0>        -0.6235
     25 H2         -7.5117   -1.3451    0.0864 H         1 <0>         0.4412
     26 N5        -10.0894   -2.2662   -3.3355 N.ar      1 <0>        -0.5026
     27 C18        -9.1673   -2.4784   -4.2525 C.ar      1 <0>         0.3263
     28 N6         -7.8784   -2.3771   -3.9916 N.ar      1 <0>        -0.5169
     29 N7         -2.1298   -2.2212   -3.8598 N.4       1 <0>        -0.6329
     30 Cl1         3.3298    3.2113   -0.3606 Cl        1 <0>        -0.0500
     31 H3         -1.4050    2.2027   -0.1625 H         1 <0>         0.1357
     32 H4          0.5279    3.7229   -0.2851 H         1 <0>         0.1410
     33 H5          3.1655    0.3688   -0.2550 H         1 <0>         0.1406
     34 H6          1.2311   -1.1499   -0.1373 H         1 <0>         0.1346
     35 H7         -1.1068   -1.4025    0.4645 H         1 <0>         0.0927
     36 H8         -2.2070   -0.0033    0.4524 H         1 <0>         0.0923
     37 H9         -1.3485   -0.4835   -2.1951 H         1 <0>         0.3945
     38 H10        -3.5892    0.0124   -3.6238 H         1 <0>         0.1014
     39 H11        -4.5158   -1.1759   -4.5724 H         1 <0>         0.1137
     40 H12        -5.0521   -0.3304   -1.6875 H         1 <0>         0.0719
     41 H13        -6.0568    0.0439   -3.1115 H         1 <0>         0.0967
     42 H14        -4.9936   -2.9822   -1.0218 H         1 <0>         0.1161
     43 H15        -5.9670   -4.0257   -2.0899 H         1 <0>         0.0883
     44 H16        -4.4628   -3.5774   -3.9696 H         1 <0>         0.1056
     45 H17        -3.4977   -4.1375   -2.5821 H         1 <0>         0.1018
     46 H18        -9.4778   -2.7389   -5.2536 H         1 <0>         0.2146
     47 H19        -1.5589   -2.9642   -3.4857 H         1 <0>         0.4403
     48 H20        -2.4258   -2.4622   -4.7939 H         1 <0>         0.4450
     49 H21        -1.5943   -1.3665   -3.8867 H         1 <0>         0.4305
@<TRIPOS>BOND
     1    1    6 ar
     2    1    2 ar
     3    1   31 1
     4    2    3 ar
     5    2   32 1
     6    3    4 ar
     7    3   30 1
     8    4    5 ar
     9    4   33 1
    10    5    6 ar
    11    5   34 1
    12    6    7 1
    13    7    8 1
    14    7   35 1
    15    7   36 1
    16    8    9 am
    17    8   37 1
    18    9   10 2
    19    9   11 1
    20   11   16 1
    21   11   12 1
    22   11   29 1
    23   12   13 1
    24   12   38 1
    25   12   39 1
    26   13   14 1
    27   13   40 1
    28   13   41 1
    29   14   15 1
    30   14   17 1
    31   15   16 1
    32   15   42 1
    33   15   43 1
    34   16   44 1
    35   16   45 1
    36   17   28 ar
    37   17   18 ar
    38   18   24 1
    39   18   19 ar
    40   19   20 1
    41   19   26 ar
    42   20   21 1
    43   20   22 am
    44   22   23 2
    45   22   24 am
    46   24   25 1
    47   26   27 ar
    48   27   28 ar
    49   27   46 1
    50   29   47 1
    51   29   48 1
    52   29   49 1
@<TRIPOS>MOLECULE
CHEMBL598842
   47    50     0     0     0
SMALL
USER_CHARGES

@<TRIPOS>ATOM
      1 C1          1.1506   -2.3324    0.2971 C.ar      1 <0>        -0.0884
      2 C2          2.2884   -3.0714    0.5609 C.ar      1 <0>        -0.1122
      3 C3          2.1778   -4.3534    1.0691 C.ar      1 <0>        -0.0280
      4 C4          0.9283   -4.8949    1.3129 C.ar      1 <0>        -0.1109
      5 C5         -0.2088   -4.1549    1.0487 C.ar      1 <0>        -0.0864
      6 C6         -0.0977   -2.8740    0.5409 C.ar      1 <0>        -0.1035
      7 C7         -1.3379   -2.0675    0.2534 C.3       1 <0>         0.1593
      8 N1         -1.7710   -2.3123   -1.1245 N.am      1 <0>        -0.7315
      9 C8         -2.8671   -1.6934   -1.6063 C.2       1 <0>         0.4853
     10 O1         -3.4948   -0.9339   -0.8992 O.2       1 <0>        -0.5144
     11 C9         -3.3127   -1.9451   -3.0238 C.3       1 <0>         0.1174
     12 C10        -4.1996   -0.7893   -3.4923 C.3       1 <0>        -0.1043
     13 C11        -5.4086   -0.6681   -2.5594 C.3       1 <0>         0.1297
     14 N2         -6.0921   -1.9673   -2.4996 N.pl3     1 <0>        -0.6511
     15 C12        -5.3110   -3.1609   -2.1473 C.3       1 <0>         0.1525
     16 C13        -4.1031   -3.2542   -3.0849 C.3       1 <0>        -0.1173
     17 C14        -7.4483   -2.0652   -2.7702 C.ar      1 <0>         0.4154
     18 C15        -8.3924   -1.8335   -1.7711 C.ar      1 <0>        -0.0774
     19 C16        -9.7551   -1.9440   -2.0930 C.ar      1 <0>         0.3397
     20 N3        -10.4495   -1.6761   -0.9714 N.2       1 <0>        -0.5898
     21 H1         -7.5364   -1.3446    0.0941 H         1 <0>         0.4044
     22 C17        -9.6233   -1.4106    0.0110 C.2       1 <0>         0.5768
     23 O2         -9.9920   -1.1001    1.2741 O.3       1 <0>        -0.6858
     24 N4         -8.3380   -1.4945   -0.4310 N.pl3     1 <0>        -0.6291
     25 N5        -10.0934   -2.2667   -3.3460 N.ar      1 <0>        -0.5253
     26 C18        -9.1674   -2.4759   -4.2558 C.ar      1 <0>         0.2855
     27 N6         -7.8776   -2.3769   -3.9912 N.ar      1 <0>        -0.5618
     28 N7         -2.1353   -2.0432   -3.8968 N.3       1 <0>        -0.8274
     29 Cl1         3.6065   -5.2825    1.4002 Cl        1 <0>        -0.0682
     30 H2          1.2369   -1.3299   -0.0954 H         1 <0>         0.1341
     31 H3          3.2636   -2.6483    0.3701 H         1 <0>         0.1356
     32 H4          0.8413   -5.8958    1.7093 H         1 <0>         0.1365
     33 H5         -1.1843   -4.5777    1.2386 H         1 <0>         0.1360
     34 H6         -2.1304   -2.3622    0.9412 H         1 <0>         0.0805
     35 H7         -1.1200   -1.0074    0.3829 H         1 <0>         0.0787
     36 H8         -1.2690   -2.9197   -1.6901 H         1 <0>         0.3957
     37 H9         -3.6289    0.1391   -3.4708 H         1 <0>         0.0650
     38 H10        -4.5424   -0.9827   -4.5088 H         1 <0>         0.0830
     39 H11        -5.0732   -0.3854   -1.5615 H         1 <0>         0.0974
     40 H12        -6.0932    0.0875   -2.9447 H         1 <0>         0.0613
     41 H13        -4.9677   -3.0815   -1.1158 H         1 <0>         0.0469
     42 H14        -5.9312   -4.0500   -2.2607 H         1 <0>         0.0718
     43 H15        -4.4468   -3.4244   -4.1051 H         1 <0>         0.0923
     44 H16        -3.4637   -4.0802   -2.7733 H         1 <0>         0.0652
     45 H17        -9.4735   -2.7353   -5.2585 H         1 <0>         0.1831
     46 H18        -1.5960   -1.1907   -3.8737 H         1 <0>         0.3454
     47 H19        -1.5659   -2.8382   -3.6480 H         1 <0>         0.3381
@<TRIPOS>BOND
     1    1    6 ar
     2    1    2 ar
     3    1   30 1
     4    2    3 ar
     5    2   31 1
     6    3    4 ar
     7    3   29 1
     8    4    5 ar
     9    4   32 1
    10    5    6 ar
    11    5   33 1
    12    6    7 1
    13    7    8 1
    14    7   34 1
    15    7   35 1
    16    8    9 am
    17    8   36 1
    18    9   10 2
    19    9   11 1
    20   11   16 1
    21   11   12 1
    22   11   28 1
    23   12   13 1
    24   12   37 1
    25   12   38 1
    26   13   14 1
    27   13   39 1
    28   13   40 1
    29   14   15 1
    30   14   17 1
    31   15   16 1
    32   15   41 1
    33   15   42 1
    34   16   43 1
    35   16   44 1
    36   17   27 ar
    37   17   18 ar
    38   18   24 1
    39   18   19 ar
    40   19   20 1
    41   19   25 ar
    42   20   22 2
    43   21   24 1
    44   22   24 1
    45   22   23 1
    46   25   26 ar
    47   26   45 1
    48   26   27 ar
    49   28   46 1
    50   28   47 1
@<TRIPOS>MOLECULE
CHEMBL598842
   47    50     0     0     0
SMALL
USER_CHARGES

@<TRIPOS>ATOM
      1 C1          1.1449   -2.3836    0.2934 C.ar      1 <0>        -0.0882
      2 C2          2.2773   -3.1332    0.5501 C.ar      1 <0>        -0.1120
      3 C3          2.1575   -4.4197    1.0447 C.ar      1 <0>        -0.0286
      4 C4          0.9041   -4.9551    1.2820 C.ar      1 <0>        -0.1113
      5 C5         -0.2277   -4.2045    1.0249 C.ar      1 <0>        -0.0869
      6 C6         -0.1073   -2.9191    0.5306 C.ar      1 <0>        -0.1023
      7 C7         -1.3417   -2.1010    0.2509 C.3       1 <0>         0.1594
      8 N1         -1.7756   -2.3283   -1.1298 N.am      1 <0>        -0.7329
      9 C8         -2.8669   -1.6968   -1.6058 C.2       1 <0>         0.4861
     10 O1         -3.4898   -0.9404   -0.8911 O.2       1 <0>        -0.5114
     11 C9         -3.3132   -1.9305   -3.0261 C.3       1 <0>         0.1109
     12 C10        -4.2038   -0.7709   -3.4781 C.3       1 <0>        -0.0993
     13 C11        -5.4122   -0.6655   -2.5424 C.3       1 <0>         0.0766
     14 N2         -6.0921   -1.9673   -2.4996 N.pl3     1 <0>        -0.5857
     15 C12        -5.3074   -3.1634   -2.1642 C.3       1 <0>         0.1273
     16 C13        -4.1002   -3.2408   -3.1041 C.3       1 <0>        -0.1164
     17 C14        -7.4472   -2.0651   -2.7700 C.ar      1 <0>         0.4455
     18 C15        -8.1754   -0.9459   -3.2055 C.ar      1 <0>        -0.0282
     19 C16        -9.5463   -1.1060   -3.4637 C.ar      1 <0>         0.2452
     20 N3        -10.0049    0.1257   -3.8685 N.pl3     1 <0>        -0.6207
     21 H1        -10.9157    0.3448   -4.1202 H         1 <0>         0.4040
     22 C17        -8.9423    0.9842   -3.8503 C.2       1 <0>         0.5529
     23 O2         -8.9948    2.2943   -4.1855 O.3       1 <0>        -0.6999
     24 N4         -7.8671    0.3507   -3.4597 N.2       1 <0>        -0.5827
     25 N5        -10.1015   -2.3004   -3.2882 N.ar      1 <0>        -0.5497
     26 C18        -9.3798   -3.3222   -2.8778 C.ar      1 <0>         0.2830
     27 N6         -8.0869   -3.2213   -2.6285 N.ar      1 <0>        -0.5908
     28 N7         -2.1365   -2.0136   -3.9015 N.3       1 <0>        -0.8272
     29 Cl1         3.5795   -5.3621    1.3669 Cl        1 <0>        -0.0691
     30 H2          1.2384   -1.3777   -0.0885 H         1 <0>         0.1345
     31 H3          3.2556   -2.7149    0.3644 H         1 <0>         0.1355
     32 H4          0.8099   -5.9594    1.6678 H         1 <0>         0.1360
     33 H5         -1.2062   -4.6224    1.2097 H         1 <0>         0.1359
     34 H6         -2.1368   -2.3975    0.9350 H         1 <0>         0.0794
     35 H7         -1.1166   -1.0439    0.3917 H         1 <0>         0.0785
     36 H8         -1.2773   -2.9332   -1.7014 H         1 <0>         0.3953
     37 H9         -3.6356    0.1587   -3.4445 H         1 <0>         0.0698
     38 H10        -4.5471   -0.9514   -4.4967 H         1 <0>         0.0790
     39 H11        -5.0766   -0.3955   -1.5411 H         1 <0>         0.0959
     40 H12        -6.0992    0.0934   -2.9168 H         1 <0>         0.1442
     41 H13        -4.9633   -3.0971   -1.1321 H         1 <0>         0.0503
     42 H14        -5.9253   -4.0526   -2.2891 H         1 <0>         0.0977
     43 H15        -4.4445   -3.3980   -4.1263 H         1 <0>         0.0873
     44 H16        -3.4583   -4.0691   -2.8044 H         1 <0>         0.0683
     45 H17        -9.8620   -4.2794   -2.7448 H         1 <0>         0.1821
     46 H18        -1.5995   -1.1600   -3.8673 H         1 <0>         0.3465
     47 H19        -1.5647   -2.8103   -3.6641 H         1 <0>         0.3361
@<TRIPOS>BOND
     1    1    6 ar
     2    1    2 ar
     3    1   30 1
     4    2    3 ar
     5    2   31 1
     6    3    4 ar
     7    3   29 1
     8    4    5 ar
     9    4   32 1
    10    5    6 ar
    11    5   33 1
    12    6    7 1
    13    7    8 1
    14    7   34 1
    15    7   35 1
    16    8    9 am
    17    8   36 1
    18    9   10 2
    19    9   11 1
    20   11   16 1
    21   11   12 1
    22   11   28 1
    23   12   13 1
    24   12   37 1
    25   12   38 1
    26   13   14 1
    27   13   39 1
    28   13   40 1
    29   14   15 1
    30   14   17 1
    31   15   16 1
    32   15   41 1
    33   15   42 1
    34   16   43 1
    35   16   44 1
    36   17   27 ar
    37   17   18 ar
    38   18   24 1
    39   18   19 ar
    40   19   20 1
    41   19   25 ar
    42   20   21 1
    43   20   22 1
    44   22   23 1
    45   22   24 2
    46   25   26 ar
    47   26   27 ar
    48   26   45 1
    49   28   46 1
    50   28   47 1
@<TRIPOS>MOLECULE
CHEMBL598842
   48    51     0     0     0
SMALL
USER_CHARGES

@<TRIPOS>ATOM
      1 C1          1.1506   -2.3323    0.2971 C.ar      1 <0>        -0.0875
      2 C2          2.2884   -3.0713    0.5610 C.ar      1 <0>        -0.1110
      3 C3          2.1778   -4.3534    1.0692 C.ar      1 <0>        -0.0258
      4 C4          0.9283   -4.8949    1.3130 C.ar      1 <0>        -0.1110
      5 C5         -0.2088   -4.1549    1.0487 C.ar      1 <0>        -0.0869
      6 C6         -0.0977   -2.8740    0.5409 C.ar      1 <0>        -0.1098
      7 C7         -1.3379   -2.0675    0.2534 C.3       1 <0>         0.1611
      8 N1         -1.7710   -2.3123   -1.1245 N.am      1 <0>        -0.7277
      9 C8         -2.8671   -1.6934   -1.6063 C.2       1 <0>         0.4856
     10 O1         -3.4948   -0.9339   -0.8992 O.2       1 <0>        -0.5231
     11 C9         -3.3127   -1.9452   -3.0238 C.3       1 <0>         0.1155
     12 C10        -4.1996   -0.7894   -3.4923 C.3       1 <0>        -0.1063
     13 C11        -5.4086   -0.6681   -2.5594 C.3       1 <0>         0.1252
     14 N2         -6.0921   -1.9673   -2.4996 N.pl3     1 <0>        -0.6563
     15 C12        -5.3110   -3.1609   -2.1473 C.3       1 <0>         0.1484
     16 C13        -4.1031   -3.2542   -3.0848 C.3       1 <0>        -0.1201
     17 C14        -7.4493   -2.0652   -2.7704 C.ar      1 <0>         0.4490
     18 C15        -8.3935   -1.8335   -1.7709 C.ar      1 <0>        -0.0097
     19 C16        -9.7469   -1.9442   -2.0925 C.ar      1 <0>         0.3465
     20 N3        -10.4571   -1.6678   -0.9382 N.am      1 <0>        -0.6200
     21 H1        -11.4234   -1.6677   -0.8546 H         1 <0>         0.4439
     22 C17        -9.5826   -1.3990    0.0501 C.2       1 <0>         0.6917
     23 O2         -9.8828   -1.1161    1.1949 O.2       1 <0>        -0.5352
     24 N4         -8.3241   -1.4913   -0.4231 N.am      1 <0>        -0.6207
     25 H2         -7.5117   -1.3451    0.0864 H         1 <0>         0.4422
     26 N5        -10.0894   -2.2662   -3.3355 N.ar      1 <0>        -0.5123
     27 C18        -9.1673   -2.4784   -4.2525 C.ar      1 <0>         0.3219
     28 N6         -7.8784   -2.3771   -3.9916 N.ar      1 <0>        -0.5138
     29 N7         -2.1353   -2.0432   -3.8968 N.3       1 <0>        -0.8277
     30 Cl1         3.6065   -5.2824    1.4003 Cl        1 <0>        -0.0628
     31 H3          1.2369   -1.3299   -0.0954 H         1 <0>         0.1341
     32 H4          3.2636   -2.6482    0.3701 H         1 <0>         0.1372
     33 H5          0.8413   -5.8958    1.7093 H         1 <0>         0.1373
     34 H6         -1.1843   -4.5777    1.2387 H         1 <0>         0.1344
     35 H7         -2.1304   -2.3622    0.9412 H         1 <0>         0.0802
     36 H8         -1.1200   -1.0074    0.3829 H         1 <0>         0.0801
     37 H9         -1.2690   -2.9197   -1.6901 H         1 <0>         0.3980
     38 H10        -3.6289    0.1390   -3.4708 H         1 <0>         0.0726
     39 H11        -4.5424   -0.9828   -4.5088 H         1 <0>         0.0855
     40 H12        -5.0732   -0.3854   -1.5615 H         1 <0>         0.1081
     41 H13        -6.0932    0.0875   -2.9447 H         1 <0>         0.0647
     42 H14        -4.9677   -3.0815   -1.1158 H         1 <0>         0.0586
     43 H15        -5.9312   -4.0500   -2.2607 H         1 <0>         0.0756
     44 H16        -4.4468   -3.4244   -4.1051 H         1 <0>         0.0949
     45 H17        -3.4637   -4.0802   -2.7733 H         1 <0>         0.0730
     46 H18        -9.4778   -2.7389   -5.2536 H         1 <0>         0.2113
     47 H19        -1.5960   -1.1908   -3.8737 H         1 <0>         0.3493
     48 H20        -1.5659   -2.8382   -3.6480 H         1 <0>         0.3419
@<TRIPOS>BOND
     1    1    6 ar
     2    1    2 ar
     3    1   31 1
     4    2    3 ar
     5    2   32 1
     6    3    4 ar
     7    3   30 1
     8    4    5 ar
     9    4   33 1
    10    5    6 ar
    11    5   34 1
    12    6    7 1
    13    7    8 1
    14    7   35 1
    15    7   36 1
    16    8    9 am
    17    8   37 1
    18    9   10 2
    19    9   11 1
    20   11   16 1
    21   11   12 1
    22   11   29 1
    23   12   13 1
    24   12   38 1
    25   12   39 1
    26   13   14 1
    27   13   40 1
    28   13   41 1
    29   14   15 1
    30   14   17 1
    31   15   16 1
    32   15   42 1
    33   15   43 1
    34   16   44 1
    35   16   45 1
    36   17   28 ar
    37   17   18 ar
    38   18   24 1
    39   18   19 ar
    40   19   20 1
    41   19   26 ar
    42   20   21 1
    43   20   22 am
    44   22   23 2
    45   22   24 am
    46   24   25 1
    47   26   27 ar
    48   27   28 ar
    49   27   46 1
    50   29   47 1
    51   29   48 1
@<TRIPOS>MOLECULE
CHEMBL178468
   76    81     0     0     0
SMALL
USER_CHARGES

@<TRIPOS>ATOM
      1 C1         -2.4010    1.9986    1.0417 C.3       1 <0>        -0.1498
      2 C2         -1.1695    1.1301    0.7775 C.3       1 <0>        -0.0815
      3 C3         -0.4308    0.8789    2.0936 C.3       1 <0>        -0.1520
      4 C4         -1.6076   -0.2064    0.1754 C.3       1 <0>        -0.0553
      5 C5         -2.2258    0.0311   -1.1783 C.2       1 <0>         0.0974
      6 C6         -2.7081   -1.0625   -1.9309 C.2       1 <0>         0.4825
      7 N1         -3.2611   -0.8452   -3.1428 N.am      1 <0>        -0.5861
      8 C7         -3.3426    0.4349   -3.6179 C.2       1 <0>         0.1375
      9 C8         -2.8558    1.4863   -2.8458 C.2       1 <0>         0.0648
     10 N2         -2.3171    1.2508   -1.6469 N.2       1 <0>        -0.3790
     11 C9         -2.9412    2.8750   -3.3549 C.ar      1 <0>        -0.0315
     12 C10        -4.1491    3.3662   -3.8492 C.ar      1 <0>        -0.0996
     13 C11        -4.2225    4.6605   -4.3221 C.ar      1 <0>        -0.1192
     14 C12        -3.1009    5.4701   -4.3067 C.ar      1 <0>        -0.1070
     15 C13        -1.8997    4.9883   -3.8179 C.ar      1 <0>        -0.1166
     16 C14        -1.8155    3.6979   -3.3363 C.ar      1 <0>        -0.0839
     17 C15        -3.9419    0.6996   -4.9394 C.ar      1 <0>        -0.0257
     18 C16        -3.2657    1.4922   -5.8708 C.ar      1 <0>        -0.0689
     19 C17        -3.8320    1.7350   -7.1047 C.ar      1 <0>        -0.0920
     20 C18        -5.0667    1.1960   -7.4213 C.ar      1 <0>        -0.1464
     21 C19        -5.7421    0.4102   -6.5040 C.ar      1 <0>        -0.0861
     22 C20        -5.1858    0.1544   -5.2682 C.ar      1 <0>        -0.0975
     23 C21        -5.6789    1.4665   -8.7715 C.3       1 <0>         0.0424
     24 N3         -5.2551    0.4265   -9.7185 N.4       1 <0>        -0.3856
     25 C22        -3.8032    0.5102   -9.9174 C.3       1 <0>        -0.0057
     26 C23        -3.3448   -0.6215  -10.8397 C.3       1 <0>        -0.1653
     27 C24        -4.0549   -0.4912  -12.1903 C.3       1 <0>         0.1611
     28 C25        -5.5693   -0.5050  -11.9631 C.3       1 <0>        -0.1670
     29 C26        -5.9453    0.6223  -10.9991 C.3       1 <0>         0.0012
     30 N4         -3.6786   -1.6145  -13.0520 N.am      1 <0>        -0.5376
     31 C27        -3.0397   -1.5170  -14.2859 C.ar      1 <0>         0.0789
     32 C28        -2.5890   -0.4456  -15.0420 C.ar      1 <0>        -0.1044
     33 C29        -1.9776   -0.6723  -16.2594 C.ar      1 <0>        -0.1025
     34 C30        -1.8133   -1.9646  -16.7282 C.ar      1 <0>        -0.0985
     35 C31        -2.2594   -3.0380  -15.9824 C.ar      1 <0>        -0.0998
     36 C32        -2.8736   -2.8203  -14.7585 C.ar      1 <0>         0.0916
     37 N5         -3.4166   -3.6694  -13.7971 N.am      1 <0>        -0.6392
     38 C33        -3.8860   -2.9175  -12.7836 C.2       1 <0>         0.6859
     39 O1         -4.4198   -3.3497  -11.7792 O.2       1 <0>        -0.5586
     40 O2         -2.6251   -2.1961   -1.4885 O.2       1 <0>        -0.5117
     41 H1         -2.0889    2.9508    1.4707 H         1 <0>         0.0528
     42 H2         -2.9273    2.1776    0.1041 H         1 <0>         0.0688
     43 H3         -3.0643    1.4862    1.7386 H         1 <0>         0.0467
     44 H4         -0.5062    1.6426    0.0807 H         1 <0>         0.0771
     45 H5         -1.0940    0.3664    2.7905 H         1 <0>         0.0561
     46 H6          0.4466    0.2601    1.9054 H         1 <0>         0.0554
     47 H7         -0.1186    1.8310    2.5226 H         1 <0>         0.0588
     48 H8         -0.7408   -0.8588    0.0696 H         1 <0>         0.0952
     49 H9         -2.3394   -0.6780    0.8313 H         1 <0>         0.0948
     50 H10        -5.0253    2.7349   -3.8624 H         1 <0>         0.1169
     51 H11        -5.1574    5.0421   -4.7052 H         1 <0>         0.1238
     52 H12        -3.1631    6.4823   -4.6782 H         1 <0>         0.1255
     53 H13        -1.0273    5.6249   -3.8089 H         1 <0>         0.1288
     54 H14        -0.8785    3.3244   -2.9505 H         1 <0>         0.1279
     55 H15        -2.3023    1.9137   -5.6250 H         1 <0>         0.1427
     56 H16        -3.3108    2.3476   -7.8254 H         1 <0>         0.1395
     57 H17        -6.7053   -0.0071   -6.7580 H         1 <0>         0.1394
     58 H18        -5.7122   -0.4624   -4.5548 H         1 <0>         0.1384
     59 H19        -6.7655    1.4589   -8.6859 H         1 <0>         0.1412
     60 H20        -5.3496    2.4413   -9.1311 H         1 <0>         0.1400
     61 H21        -3.5535    1.4702  -10.3691 H         1 <0>         0.1337
     62 H22        -3.2994    0.4205   -8.9550 H         1 <0>         0.1371
     63 H23        -2.2669   -0.5565  -10.9875 H         1 <0>         0.1173
     64 H24        -3.5938   -1.5820  -10.3888 H         1 <0>         0.1066
     65 H25        -3.7661    0.4466  -12.6650 H         1 <0>         0.1154
     66 H26        -6.0814   -0.3568  -12.9138 H         1 <0>         0.1189
     67 H27        -5.8645   -1.4632  -11.5354 H         1 <0>         0.1075
     68 H28        -7.0229    0.6154  -10.8353 H         1 <0>         0.1391
     69 H29        -5.6500    1.5800  -11.4278 H         1 <0>         0.1343
     70 H30        -2.7161    0.5639  -14.6798 H         1 <0>         0.1289
     71 H31        -1.6265    0.1621  -16.8484 H         1 <0>         0.1390
     72 H32        -1.3345   -2.1339  -17.6813 H         1 <0>         0.1403
     73 H33        -2.1301   -4.0446  -16.3517 H         1 <0>         0.1370
     74 H34        -3.5960   -1.5872   -3.6702 H         1 <0>         0.4193
     75 H35        -5.4898   -0.4816   -9.3465 H         1 <0>         0.4262
     76 H36        -3.4476   -4.6376  -13.8472 H         1 <0>         0.4399
@<TRIPOS>BOND
     1    1    2 1
     2    1   41 1
     3    1   42 1
     4    1   43 1
     5    2    3 1
     6    2    4 1
     7    2   44 1
     8    3   45 1
     9    3   46 1
    10    3   47 1
    11    4   48 1
    12    4   49 1
    13    4    5 1
    14    5    6 1
    15    5   10 2
    16    6   40 2
    17    6    7 am
    18    7    8 1
    19    7   74 1
    20    8    9 2
    21    8   17 1
    22    9   10 1
    23    9   11 1
    24   11   16 ar
    25   11   12 ar
    26   12   13 ar
    27   12   50 1
    28   13   14 ar
    29   13   51 1
    30   14   15 ar
    31   14   52 1
    32   15   16 ar
    33   15   53 1
    34   16   54 1
    35   17   22 ar
    36   17   18 ar
    37   18   19 ar
    38   18   55 1
    39   19   20 ar
    40   19   56 1
    41   20   21 ar
    42   20   23 1
    43   21   22 ar
    44   21   57 1
    45   22   58 1
    46   23   24 1
    47   23   59 1
    48   23   60 1
    49   24   29 1
    50   24   25 1
    51   24   75 1
    52   25   26 1
    53   25   61 1
    54   25   62 1
    55   26   27 1
    56   26   63 1
    57   26   64 1
    58   27   28 1
    59   27   30 1
    60   27   65 1
    61   28   29 1
    62   28   66 1
    63   28   67 1
    64   29   68 1
    65   29   69 1
    66   30   38 am
    67   30   31 1
    68   31   36 ar
    69   31   32 ar
    70   32   33 ar
    71   32   70 1
    72   33   34 ar
    73   33   71 1
    74   34   35 ar
    75   34   72 1
    76   35   36 ar
    77   35   73 1
    78   36   37 1
    79   37   38 am
    80   37   76 1
    81   38   39 2
@<TRIPOS>MOLECULE
CHEMBL272292
   71    77     0     0     0
SMALL
USER_CHARGES

@<TRIPOS>ATOM
      1 C1         -0.3251    0.5519   -0.9138 C.ar      1 <0>        -0.1089
      2 C2          0.7362    1.4383   -0.8705 C.ar      1 <0>        -0.1170
      3 C3          2.0188    0.9737   -0.6626 C.ar      1 <0>        -0.0774
      4 C4          2.2440   -0.3925   -0.4960 C.ar      1 <0>        -0.0350
      5 C5          1.1700   -1.2811   -0.5406 C.ar      1 <0>        -0.0947
      6 C6         -0.1080   -0.8044   -0.7492 C.ar      1 <0>        -0.1275
      7 C7          3.6185   -0.8978   -0.2729 C.ar      1 <0>         0.1408
      8 C8          3.8748   -1.8983    0.7626 C.ar      1 <0>         0.1110
      9 N1          5.1039   -2.3422    0.9535 N.ar      1 <0>        -0.4041
     10 C9          6.1075   -1.8770    0.2014 C.ar      1 <0>         0.0752
     11 C10         7.4194   -2.3488    0.4027 C.ar      1 <0>        -0.1082
     12 C11         8.4388   -1.8782   -0.3589 C.ar      1 <0>        -0.0461
     13 C12         8.2060   -0.9155   -1.3585 C.ar      1 <0>        -0.0967
     14 C13         6.9265   -0.4309   -1.5816 C.ar      1 <0>        -0.0582
     15 C14         5.8585   -0.9071   -0.8029 C.ar      1 <0>         0.0837
     16 N2          4.6172   -0.4515   -1.0112 N.ar      1 <0>        -0.4041
     17 C15         9.3304   -0.4185   -2.1735 C.2       1 <0>         0.5174
     18 O1         10.4608   -0.8431   -1.9796 O.co2     1 <0>        -0.6725
     19 O2          9.1323    0.4182   -3.0433 O.co2     1 <0>        -0.6715
     20 C16         2.7614   -2.4107    1.5937 C.ar      1 <0>         0.0186
     21 C17         1.8208   -1.5285    2.1254 C.ar      1 <0>        -0.0831
     22 C18         0.7857   -2.0121    2.8990 C.ar      1 <0>        -0.0959
     23 C19         0.6798   -3.3689    3.1480 C.ar      1 <0>        -0.1628
     24 C20         1.6097   -4.2489    2.6238 C.ar      1 <0>        -0.0910
     25 C21         2.6456   -3.7783    1.8432 C.ar      1 <0>        -0.0835
     26 C22        -0.4530   -3.8903    3.9941 C.3       1 <0>         0.0467
     27 N3         -1.6010   -4.2072    3.1341 N.4       1 <0>        -0.3854
     28 C23        -2.1026   -2.9739    2.5161 C.3       1 <0>        -0.0075
     29 C24        -3.2467   -3.3085    1.5567 C.3       1 <0>        -0.1650
     30 C25        -4.3770   -3.9872    2.3358 C.3       1 <0>         0.1608
     31 C26        -3.8248   -5.2317    3.0368 C.3       1 <0>        -0.1664
     32 C27        -2.6593   -4.8258    3.9414 C.3       1 <0>         0.0014
     33 N4         -5.4434   -4.3787    1.4106 N.am      1 <0>        -0.5370
     34 C28        -6.7634   -3.9362    1.4540 C.ar      1 <0>         0.0813
     35 C29        -7.4496   -3.0702    2.2918 C.ar      1 <0>        -0.1043
     36 C30        -8.7911   -2.8235    2.0757 C.ar      1 <0>        -0.1038
     37 C31        -9.4537   -3.4374    1.0265 C.ar      1 <0>        -0.1005
     38 C32        -8.7787   -4.3017    0.1871 C.ar      1 <0>        -0.1008
     39 C33        -7.4315   -4.5550    0.3956 C.ar      1 <0>         0.0918
     40 N5         -6.4967   -5.3543   -0.2582 N.am      1 <0>        -0.6401
     41 H1         -6.6682   -5.9079   -1.0360 H         1 <0>         0.4393
     42 C34        -5.3131   -5.2230    0.3700 C.2       1 <0>         0.6853
     43 O3         -4.2828   -5.7849    0.0482 O.2       1 <0>        -0.5550
     44 H2         -1.3277    0.9207   -1.0723 H         1 <0>         0.1232
     45 H3          0.5606    2.4960   -1.0001 H         1 <0>         0.1290
     46 H4          2.8465    1.6666   -0.6294 H         1 <0>         0.1312
     47 H5          1.3383   -2.3402   -0.4125 H         1 <0>         0.1195
     48 H6         -0.9405   -1.4915   -0.7836 H         1 <0>         0.1194
     49 H7          7.6144   -3.0873    1.1661 H         1 <0>         0.1372
     50 H8          9.4409   -2.2466   -0.1958 H         1 <0>         0.1477
     51 H9          6.7518    0.3084   -2.3492 H         1 <0>         0.1504
     52 H10         1.9028   -0.4691    1.9323 H         1 <0>         0.1377
     53 H11         0.0568   -1.3300    3.3113 H         1 <0>         0.1334
     54 H12         1.5221   -5.3069    2.8223 H         1 <0>         0.1338
     55 H13         3.3682   -4.4667    1.4305 H         1 <0>         0.1397
     56 H14        -0.1312   -4.7910    4.5170 H         1 <0>         0.1380
     57 H15        -0.7423   -3.1317    4.7214 H         1 <0>         0.1362
     58 H16        -2.4654   -2.3004    3.2926 H         1 <0>         0.1320
     59 H17        -1.2963   -2.4904    1.9647 H         1 <0>         0.1421
     60 H18        -3.6190   -2.3913    1.1002 H         1 <0>         0.1170
     61 H19        -2.8850   -3.9817    0.7795 H         1 <0>         0.1073
     62 H20        -4.7736   -3.2957    3.0792 H         1 <0>         0.1146
     63 H21        -4.6103   -5.6892    3.6384 H         1 <0>         0.1163
     64 H22        -3.4751   -5.9448    2.2904 H         1 <0>         0.1073
     65 H23        -2.2639   -5.7095    4.4423 H         1 <0>         0.1376
     66 H24        -3.0102   -4.1129    4.6876 H         1 <0>         0.1324
     67 H25        -6.9362   -2.5901    3.1118 H         1 <0>         0.1291
     68 H26        -9.3257   -2.1491    2.7282 H         1 <0>         0.1378
     69 H27       -10.5029   -3.2398    0.8640 H         1 <0>         0.1388
     70 H28        -9.2991   -4.7793   -0.6300 H         1 <0>         0.1358
     71 H29        -1.3116   -4.8494    2.4117 H         1 <0>         0.4264
@<TRIPOS>BOND
     1    1    6 ar
     2    1    2 ar
     3    1   44 1
     4    2    3 ar
     5    2   45 1
     6    3    4 ar
     7    3   46 1
     8    4    5 ar
     9    4    7 1
    10    5    6 ar
    11    5   47 1
    12    6   48 1
    13    7   16 ar
    14    7    8 ar
    15    8    9 ar
    16    8   20 1
    17    9   10 ar
    18   10   15 ar
    19   10   11 ar
    20   11   12 ar
    21   11   49 1
    22   12   13 ar
    23   12   50 1
    24   13   14 ar
    25   13   17 1
    26   14   15 ar
    27   14   51 1
    28   15   16 ar
    29   17   18 2
    30   17   19 1
    31   20   25 ar
    32   20   21 ar
    33   21   22 ar
    34   21   52 1
    35   22   23 ar
    36   22   53 1
    37   23   24 ar
    38   23   26 1
    39   24   25 ar
    40   24   54 1
    41   25   55 1
    42   26   27 1
    43   26   56 1
    44   26   57 1
    45   27   32 1
    46   27   28 1
    47   27   71 1
    48   28   29 1
    49   28   58 1
    50   28   59 1
    51   29   30 1
    52   29   60 1
    53   29   61 1
    54   30   31 1
    55   30   33 1
    56   30   62 1
    57   31   32 1
    58   31   63 1
    59   31   64 1
    60   32   65 1
    61   32   66 1
    62   33   42 am
    63   33   34 1
    64   34   39 ar
    65   34   35 ar
    66   35   36 ar
    67   35   67 1
    68   36   37 ar
    69   36   68 1
    70   37   38 ar
    71   37   69 1
    72   38   39 ar
    73   38   70 1
    74   39   40 1
    75   40   41 1
    76   40   42 am
    77   42   43 2
@<TRIPOS>MOLECULE
CHEMBL1099297
   62    65     0     0     0
SMALL
USER_CHARGES

@<TRIPOS>ATOM
      1 C1         -0.0187    1.5258    0.0104 C.3       1 <0>        -0.1709
      2 C2          0.0021   -0.0041    0.0020 C.3       1 <0>         0.0934
      3 N1          0.7106   -0.4894    1.1889 N.pl3     1 <0>        -0.4542
      4 C3          2.0591   -0.7390    1.2909 C.ar      1 <0>         0.1308
      5 C4          3.1434   -0.6439    0.4279 C.ar      1 <0>        -0.1682
      6 C5          4.4035   -0.9912    0.8894 C.ar      1 <0>         0.3192
      7 N2          4.5902   -1.4096    2.1317 N.ar      1 <0>        -0.5330
      8 C6          3.5912   -1.5196    2.9985 C.ar      1 <0>         0.3581
      9 C7          2.2790   -1.1866    2.6096 C.ar      1 <0>         0.0014
     10 N3          1.0876   -1.1892    3.2334 N.2       1 <0>        -0.4355
     11 C8          0.1554   -0.7750    2.4101 C.2       1 <0>         0.3454
     12 C9         -1.2785   -0.6396    2.7460 C.2       1 <0>         0.1257
     13 C10        -1.8891   -0.9348    4.0485 C.2       1 <0>         0.3627
     14 N4         -3.1689   -0.6966    3.9645 N.2       1 <0>        -0.3405
     15 O1         -3.4447   -0.2500    2.6489 O.3       1 <0>         0.0536
     16 N5         -2.2210   -0.2305    1.9357 N.2       1 <0>        -0.2425
     17 N6         -1.2189   -1.3898    5.1764 N.pl3     1 <0>        -0.8026
     18 C11         3.8475   -1.9779    4.3307 C.1       1 <0>        -0.1361
     19 C12         4.0577   -2.3536    5.4229 C.1       1 <0>        -0.1075
     20 C13         4.3213   -2.8247    6.7924 C.3       1 <0>         0.2367
     21 C14         3.0105   -2.8598    7.5807 C.3       1 <0>        -0.1793
     22 C15         4.9235   -4.2302    6.7412 C.3       1 <0>        -0.1374
     23 O2          5.2390   -1.9364    7.4333 O.3       1 <0>        -0.5433
     24 O3          5.4672   -0.9010    0.0510 O.3       1 <0>        -0.2828
     25 C16         6.7425   -1.2714    0.5787 C.3       1 <0>         0.1459
     26 H1          6.7669   -1.0648    1.6487 H         1 <0>         0.1117
     27 C17         6.9781   -2.7645    0.3422 C.3       1 <0>        -0.1630
     28 C18         5.9575   -3.5752    1.1435 C.3       1 <0>        -0.0116
     29 N7          6.1838   -5.0088    0.9164 N.4       1 <0>        -0.6373
     30 C19         7.8215   -0.4771   -0.1111 C.ar      1 <0>        -0.1121
     31 C20         7.6891   -0.1456   -1.4465 C.ar      1 <0>        -0.0923
     32 C21         8.6789    0.5830   -2.0792 C.ar      1 <0>        -0.1189
     33 C22         9.8008    0.9805   -1.3764 C.ar      1 <0>        -0.1022
     34 C23         9.9328    0.6499   -0.0407 C.ar      1 <0>        -0.1163
     35 C24         8.9410   -0.0751    0.5932 C.ar      1 <0>        -0.1022
     36 H2          1.0039    1.9031    0.0027 H         1 <0>         0.0655
     37 H3         -0.5459    1.8868   -0.8726 H         1 <0>         0.0919
     38 H4         -0.5289    1.8773    0.9072 H         1 <0>         0.0661
     39 H5         -1.0205   -0.3814    0.0098 H         1 <0>         0.1135
     40 H6          0.5123   -0.3556   -0.8948 H         1 <0>         0.1042
     41 H7          3.0066   -0.3046   -0.5883 H         1 <0>         0.1538
     42 H8         -0.2610   -1.5392    5.1441 H         1 <0>         0.4283
     43 H9         -1.7087   -1.5583    5.9965 H         1 <0>         0.4210
     44 H10         2.3105   -3.5373    7.0918 H         1 <0>         0.0741
     45 H11         3.2057   -3.2086    8.5948 H         1 <0>         0.0824
     46 H12         2.5815   -1.8584    7.6172 H         1 <0>         0.0676
     47 H13         5.8573   -4.2052    6.1795 H         1 <0>         0.0649
     48 H14         5.1186   -4.5791    7.7552 H         1 <0>         0.0819
     49 H15         4.2235   -4.9078    6.2523 H         1 <0>         0.0748
     50 H16         4.9222   -1.0252    7.5010 H         1 <0>         0.3867
     51 H17         6.8658   -2.9864   -0.7191 H         1 <0>         0.0995
     52 H18         7.9854   -3.0289    0.6640 H         1 <0>         0.1085
     53 H19         6.0698   -3.3533    2.2047 H         1 <0>         0.1464
     54 H20         4.9502   -3.3109    0.8217 H         1 <0>         0.1253
     55 H21         7.1162   -5.2534    1.2143 H         1 <0>         0.4357
     56 H22         5.5107   -5.5434    1.4448 H         1 <0>         0.4382
     57 H23         6.8125   -0.4562   -1.9957 H         1 <0>         0.1270
     58 H24         8.5758    0.8413   -3.1228 H         1 <0>         0.1286
     59 H25        10.5745    1.5492   -1.8709 H         1 <0>         0.1291
     60 H26        10.8095    0.9602    0.5084 H         1 <0>         0.1303
     61 H27         9.0424   -0.3302    1.6377 H         1 <0>         0.1255
     62 H28         6.0798   -5.2142   -0.0660 H         1 <0>         0.4342
@<TRIPOS>BOND
     1    1    2 1
     2    1   36 1
     3    1   37 1
     4    1   38 1
     5    2    3 1
     6    2   39 1
     7    2   40 1
     8    3   11 1
     9    3    4 1
    10    4    9 ar
    11    4    5 ar
    12    5    6 ar
    13    5   41 1
    14    6    7 ar
    15    6   24 1
    16    7    8 ar
    17    8    9 ar
    18    8   18 1
    19    9   10 1
    20   10   11 2
    21   11   12 1
    22   12   16 2
    23   12   13 1
    24   13   14 2
    25   13   17 1
    26   14   15 1
    27   15   16 1
    28   17   42 1
    29   17   43 1
    30   18   19 3
    31   19   20 1
    32   20   21 1
    33   20   22 1
    34   20   23 1
    35   21   44 1
    36   21   45 1
    37   21   46 1
    38   22   47 1
    39   22   48 1
    40   22   49 1
    41   23   50 1
    42   24   25 1
    43   25   26 1
    44   25   27 1
    45   25   30 1
    46   27   28 1
    47   27   51 1
    48   27   52 1
    49   28   29 1
    50   28   53 1
    51   28   54 1
    52   29   55 1
    53   29   56 1
    54   29   62 1
    55   30   35 ar
    56   30   31 ar
    57   31   32 ar
    58   31   57 1
    59   32   33 ar
    60   32   58 1
    61   33   34 ar
    62   33   59 1
    63   34   35 ar
    64   34   60 1
    65   35   61 1
@<TRIPOS>MOLECULE
CHEMBL534916
   82    86     0     0     0
SMALL
USER_CHARGES

@<TRIPOS>ATOM
      1 C1          4.6439   -8.2450    8.0950 C.3       1 <0>        -0.1428
      2 C2          3.2881   -8.9116    7.8535 C.3       1 <0>        -0.0801
      3 C3          2.8705   -9.6879    9.1046 C.3       1 <0>        -0.1096
      4 C4          1.5300  -10.3820    8.8526 C.3       1 <0>        -0.1394
      5 C5          0.4598   -9.3258    8.5593 C.3       1 <0>         0.1180
      6 N1          0.9205   -8.4816    7.4485 N.pl3     1 <0>        -0.6213
      7 C6          2.2378   -7.8388    7.5490 C.3       1 <0>         0.1287
      8 C7          0.1199   -8.2937    6.3162 C.ar      1 <0>         0.2226
      9 C8         -1.0747   -8.9962    6.1863 C.ar      1 <0>        -0.1677
     10 C9         -1.8709   -8.8181    5.0731 C.ar      1 <0>        -0.0898
     11 C10        -1.4856   -7.9365    4.0744 C.ar      1 <0>         0.0707
     12 C11        -0.2836   -7.2245    4.1979 C.ar      1 <0>        -0.1250
     13 C12         0.5150   -7.4061    5.3314 C.ar      1 <0>        -0.1530
     14 C13         0.1331   -6.2856    3.1410 C.2       1 <0>         0.4481
     15 O1          0.0258   -5.0873    3.3156 O.2       1 <0>        -0.4265
     16 C14         0.6820   -6.8015    1.8674 C.ar      1 <0>        -0.1209
     17 C15         1.1688   -5.9134    0.9061 C.ar      1 <0>        -0.0675
     18 C16         1.6798   -6.3940   -0.2798 C.ar      1 <0>        -0.0675
     19 C17         1.7110   -7.7686   -0.5202 C.ar      1 <0>        -0.1179
     20 C18         1.2242   -8.6566    0.4404 C.ar      1 <0>        -0.0995
     21 C19         0.7187   -8.1769    1.6290 C.ar      1 <0>        -0.0602
     22 C20         2.2601   -8.2847   -1.7942 C.2       1 <0>         0.5682
     23 O2          2.6837   -7.5116   -2.6308 O.2       1 <0>        -0.5166
     24 N2          2.2903   -9.6120   -2.0265 N.am      1 <0>        -0.7282
     25 C21         2.8337  -10.1227   -3.2875 C.3       1 <0>         0.1253
     26 H1          3.6623   -9.4886   -3.6029 H         1 <0>         0.1129
     27 C22         1.7260  -10.0881   -4.3699 C.3       1 <0>        -0.1410
     28 C23         2.3660  -10.2297   -5.7250 C.3       1 <0>        -0.1435
     29 C24         2.4634  -11.6878   -6.2085 C.3       1 <0>        -0.0107
     30 N3          2.8902  -12.6329   -5.1545 N.4       1 <0>        -0.4990
     31 C25         3.9542  -12.0916   -4.3442 C.3       1 <0>        -0.0239
     32 C26         3.3215  -11.4811   -3.0831 C.3       1 <0>         0.1228
     33 H2          2.4878  -12.1092   -2.7692 H         1 <0>         0.1119
     34 N4          4.3238  -11.4658   -2.0147 N.am      1 <0>        -0.7207
     35 C27         4.5581  -12.5807   -1.2946 C.2       1 <0>         0.5729
     36 O3          3.9381  -13.5986   -1.5316 O.2       1 <0>        -0.5209
     37 C28         5.5717  -12.5653   -0.2142 C.ar      1 <0>        -0.1037
     38 C29         6.2920  -11.4033    0.0786 C.ar      1 <0>        -0.1410
     39 C30         7.2275  -11.4334    1.0948 C.ar      1 <0>         0.1047
     40 N5          7.4444  -12.5367    1.7826 N.ar      1 <0>        -0.4563
     41 C31         6.7876  -13.6533    1.5391 C.ar      1 <0>         0.1055
     42 C32         5.8303  -13.7107    0.5447 C.ar      1 <0>        -0.1101
     43 O4         -2.2696   -7.7635    2.9801 O.3       1 <0>        -0.4948
     44 C33         3.3954   -9.8724    6.6677 C.3       1 <0>        -0.1376
     45 H3          4.5672   -7.5615    8.9407 H         1 <0>         0.0586
     46 H4          5.3908   -9.0087    8.3117 H         1 <0>         0.0610
     47 H5          4.9395   -7.6899    7.2048 H         1 <0>         0.0565
     48 H6          3.6284  -10.4358    9.3377 H         1 <0>         0.0669
     49 H7          2.7706   -8.9987    9.9431 H         1 <0>         0.0654
     50 H8          1.6226  -11.0530    7.9986 H         1 <0>         0.0704
     51 H9          1.2446  -10.9536    9.7357 H         1 <0>         0.0755
     52 H10        -0.4726   -9.8175    8.2822 H         1 <0>         0.0840
     53 H11         0.3016   -8.7103    9.4448 H         1 <0>         0.0663
     54 H12         2.2246   -7.1019    8.3521 H         1 <0>         0.0661
     55 H13         2.4785   -7.3493    6.6052 H         1 <0>         0.0807
     56 H14        -1.3800   -9.6845    6.9605 H         1 <0>         0.1335
     57 H15        -2.7962   -9.3670    4.9794 H         1 <0>         0.1356
     58 H16         1.4400   -6.8584    5.4355 H         1 <0>         0.1308
     59 H17         1.1443   -4.8497    1.0919 H         1 <0>         0.1455
     60 H18         2.0559   -5.7071   -1.0235 H         1 <0>         0.1453
     61 H19         1.2481   -9.7202    0.2539 H         1 <0>         0.1264
     62 H20         0.3465   -8.8643    2.3742 H         1 <0>         0.1402
     63 H21         1.9522  -10.2290   -1.3588 H         1 <0>         0.4062
     64 H22         1.0301  -10.9111   -4.2068 H         1 <0>         0.0763
     65 H23         1.1918   -9.1395   -4.3156 H         1 <0>         0.1073
     66 H24         1.7820   -9.6605   -6.4481 H         1 <0>         0.1173
     67 H25         3.3704   -9.8083   -5.6824 H         1 <0>         0.0916
     68 H26         1.4869  -11.9979   -6.5805 H         1 <0>         0.1353
     69 H27         3.1779  -11.7359   -7.0303 H         1 <0>         0.1349
     70 H28         2.1007  -12.8426   -4.5622 H         1 <0>         0.4269
     71 H29         4.6447  -12.8867   -4.0630 H         1 <0>         0.1442
     72 H30         4.4860  -11.3201   -4.9012 H         1 <0>         0.1443
     73 H31         4.8187  -10.6533   -1.8256 H         1 <0>         0.4161
     74 H32         6.1200  -10.4960   -0.4813 H         1 <0>         0.1370
     75 H33         7.7889  -10.5409    1.3285 H         1 <0>         0.1671
     76 H34         6.9979  -14.5341    2.1276 H         1 <0>         0.1698
     77 H35         5.2927  -14.6277    0.3537 H         1 <0>         0.1509
     78 H36        -2.9263   -7.0600    3.0740 H         1 <0>         0.3890
     79 H37         4.1419  -10.6362    6.8853 H         1 <0>         0.0545
     80 H38         2.4293  -10.3470    6.4960 H         1 <0>         0.0595
     81 H39         3.6914   -9.3184    5.7769 H         1 <0>         0.0499
     82 H40         3.2093  -13.4862   -5.5882 H         1 <0>         0.4376
@<TRIPOS>BOND
     1    1    2 1
     2    1   45 1
     3    1   46 1
     4    1   47 1
     5    2    7 1
     6    2    3 1
     7    2   44 1
     8    3    4 1
     9    3   48 1
    10    3   49 1
    11    4    5 1
    12    4   50 1
    13    4   51 1
    14    5    6 1
    15    5   52 1
    16    5   53 1
    17    6    7 1
    18    6    8 1
    19    7   54 1
    20    7   55 1
    21    8   13 ar
    22    8    9 ar
    23    9   10 ar
    24    9   56 1
    25   10   11 ar
    26   10   57 1
    27   11   12 ar
    28   11   43 1
    29   12   13 ar
    30   12   14 1
    31   13   58 1
    32   14   15 2
    33   14   16 1
    34   16   21 ar
    35   16   17 ar
    36   17   18 ar
    37   17   59 1
    38   18   19 ar
    39   18   60 1
    40   19   20 ar
    41   19   22 1
    42   20   21 ar
    43   20   61 1
    44   21   62 1
    45   22   23 2
    46   22   24 am
    47   24   25 1
    48   24   63 1
    49   25   26 1
    50   25   32 1
    51   25   27 1
    52   27   28 1
    53   27   64 1
    54   27   65 1
    55   28   29 1
    56   28   66 1
    57   28   67 1
    58   29   30 1
    59   29   68 1
    60   29   69 1
    61   30   31 1
    62   30   70 1
    63   30   82 1
    64   31   32 1
    65   31   71 1
    66   31   72 1
    67   32   33 1
    68   32   34 1
    69   34   35 am
    70   34   73 1
    71   35   36 2
    72   35   37 1
    73   37   42 ar
    74   37   38 ar
    75   38   39 ar
    76   38   74 1
    77   39   40 ar
    78   39   75 1
    79   40   41 ar
    80   41   42 ar
    81   41   76 1
    82   42   77 1
    83   43   78 1
    84   44   79 1
    85   44   80 1
    86   44   81 1
@<TRIPOS>MOLECULE
CHEMBL603244
   49    52     0     0     0
SMALL
USER_CHARGES

@<TRIPOS>ATOM
      1 C1         -0.3277    1.5441    0.0370 C.ar      1 <0>        -0.0392
      2 C2          0.8074    2.3258   -0.0057 C.ar      1 <0>        -0.1123
      3 C3          2.0561    1.7340   -0.1008 C.ar      1 <0>        -0.0033
      4 C4          2.1727    0.3548   -0.1541 C.ar      1 <0>        -0.1168
      5 C5          1.0448   -0.4374   -0.1122 C.ar      1 <0>        -0.0770
      6 C6         -0.2166    0.1534   -0.0159 C.ar      1 <0>        -0.1467
      7 C7         -1.4293   -0.6900    0.0294 C.2       1 <0>         0.5716
      8 O1         -2.5263   -0.1731    0.1128 O.2       1 <0>        -0.5050
      9 N1         -1.3189   -2.0323   -0.0219 N.am      1 <0>        -0.7496
     10 C8         -2.5211   -2.8684    0.0230 C.3       1 <0>         0.0981
     11 C9         -2.1197   -4.3430   -0.0502 C.3       1 <0>         0.0533
     12 C10        -1.3650   -4.6017   -1.3561 C.3       1 <0>        -0.1536
     13 C11        -2.2597   -4.2258   -2.5414 C.3       1 <0>         0.1526
     14 N2         -3.5304   -4.9540   -2.4244 N.pl3     1 <0>        -0.6550
     15 C12        -4.2933   -4.8472   -1.1732 C.3       1 <0>         0.1487
     16 C13        -3.3757   -5.2161   -0.0033 C.3       1 <0>        -0.1493
     17 C14        -3.9999   -5.7252   -3.4723 C.ar      1 <0>         0.4606
     18 C15        -4.8307   -5.1705   -4.4580 C.ar      1 <0>        -0.2031
     19 C16        -5.4003   -3.8478   -4.7080 C.2       1 <0>        -0.1756
     20 C17        -6.1264   -3.9442   -5.8337 C.2       1 <0>         0.0698
     21 N3         -6.0630   -5.2248   -6.3191 N.pl3     1 <0>        -0.5700
     22 H1         -6.5067   -5.5375   -7.1229 H         1 <0>         0.4282
     23 C18        -5.2815   -5.9964   -5.5039 C.ar      1 <0>         0.3226
     24 N4         -4.9015   -7.2733   -5.5158 N.ar      1 <0>        -0.5241
     25 C19        -4.1219   -7.7510   -4.5703 C.ar      1 <0>         0.3271
     26 N5         -3.6709   -7.0095   -3.5742 N.ar      1 <0>        -0.5495
     27 N6         -1.2526   -4.6713    1.0892 N.4       1 <0>        -0.6353
     28 Cl1         3.4806    2.7247   -0.1540 Cl        1 <0>        -0.0438
     29 H2         -1.3006    2.0065    0.1156 H         1 <0>         0.1497
     30 H3          0.7226    3.4018    0.0348 H         1 <0>         0.1482
     31 H4          3.1489   -0.1010   -0.2289 H         1 <0>         0.1445
     32 H5          1.1369   -1.5126   -0.1542 H         1 <0>         0.1273
     33 H6         -0.4435   -2.4447   -0.0885 H         1 <0>         0.3939
     34 H7         -3.0576   -2.6836    0.9537 H         1 <0>         0.1004
     35 H8         -3.1649   -2.6246   -0.8221 H         1 <0>         0.1223
     36 H9         -0.4585   -3.9969   -1.3784 H         1 <0>         0.0928
     37 H10        -1.1004   -5.6572   -1.4204 H         1 <0>         0.1037
     38 H11        -2.4510   -3.1528   -2.5290 H         1 <0>         0.0742
     39 H12        -1.7659   -4.5002   -3.4736 H         1 <0>         0.0921
     40 H13        -4.6504   -3.8248   -1.0492 H         1 <0>         0.0761
     41 H14        -5.1411   -5.5316   -1.2026 H         1 <0>         0.0943
     42 H15        -3.0922   -6.2658   -0.0803 H         1 <0>         0.1042
     43 H16        -3.9004   -5.0486    0.9374 H         1 <0>         0.1024
     44 H17        -5.2639   -2.9632   -4.1036 H         1 <0>         0.1543
     45 H18        -6.6780   -3.1345   -6.2881 H         1 <0>         0.1875
     46 H19        -3.8347   -8.7913   -4.6126 H         1 <0>         0.2032
     47 H20        -1.7497   -4.5003    1.9504 H         1 <0>         0.4380
     48 H21        -0.9878   -5.6438    1.0411 H         1 <0>         0.4397
     49 H22        -0.4246   -4.0954    1.0587 H         1 <0>         0.4279
@<TRIPOS>BOND
     1    1    6 ar
     2    1    2 ar
     3    1   29 1
     4    2    3 ar
     5    2   30 1
     6    3    4 ar
     7    3   28 1
     8    4    5 ar
     9    4   31 1
    10    5    6 ar
    11    5   32 1
    12    6    7 1
    13    7    8 2
    14    7    9 am
    15    9   10 1
    16    9   33 1
    17   10   11 1
    18   10   34 1
    19   10   35 1
    20   11   16 1
    21   11   12 1
    22   11   27 1
    23   12   13 1
    24   12   36 1
    25   12   37 1
    26   13   14 1
    27   13   38 1
    28   13   39 1
    29   14   15 1
    30   14   17 1
    31   15   16 1
    32   15   40 1
    33   15   41 1
    34   16   42 1
    35   16   43 1
    36   17   26 ar
    37   17   18 ar
    38   18   23 ar
    39   18   19 1
    40   19   20 2
    41   19   44 1
    42   20   21 1
    43   20   45 1
    44   21   22 1
    45   21   23 1
    46   23   24 ar
    47   24   25 ar
    48   25   26 ar
    49   25   46 1
    50   27   47 1
    51   27   48 1
    52   27   49 1
@<TRIPOS>MOLECULE
CHEMBL598194
   48    51     0     0     0
SMALL
USER_CHARGES

@<TRIPOS>ATOM
      1 C1          1.1506   -2.3319    0.2973 C.ar      1 <0>        -0.0877
      2 C2          2.2884   -3.0709    0.5613 C.ar      1 <0>        -0.1111
      3 C3          2.1778   -4.3528    1.0697 C.ar      1 <0>        -0.0263
      4 C4          0.9282   -4.8943    1.3136 C.ar      1 <0>        -0.1111
      5 C5         -0.2088   -4.1543    1.0492 C.ar      1 <0>        -0.0870
      6 C6         -0.0977   -2.8735    0.5412 C.ar      1 <0>        -0.1087
      7 C7         -1.3379   -2.0671    0.2535 C.3       1 <0>         0.1613
      8 N1         -1.7710   -2.3121   -1.1244 N.am      1 <0>        -0.7291
      9 C8         -2.8671   -1.6933   -1.6063 C.2       1 <0>         0.4863
     10 O1         -3.4948   -0.9337   -0.8994 O.2       1 <0>        -0.5203
     11 C9         -3.3126   -1.9454   -3.0237 C.3       1 <0>         0.1163
     12 C10        -4.1995   -0.7896   -3.4925 C.3       1 <0>        -0.1073
     13 C11        -5.4086   -0.6681   -2.5596 C.3       1 <0>         0.1308
     14 N2         -6.0921   -1.9673   -2.4996 N.pl3     1 <0>        -0.6549
     15 C12        -5.3111   -3.1608   -2.1470 C.3       1 <0>         0.1531
     16 C13        -4.1032   -3.2544   -3.0845 C.3       1 <0>        -0.1208
     17 C14        -7.4452   -2.0649   -2.7696 C.ar      1 <0>         0.4827
     18 C15        -8.3977   -1.8322   -1.7655 C.ar      1 <0>        -0.2088
     19 C16        -8.3434   -1.4733   -0.3497 C.2       1 <0>        -0.1619
     20 C17        -9.6136   -1.3920    0.0793 C.2       1 <0>         0.0513
     21 N3        -10.4712   -1.6712   -0.9532 N.pl3     1 <0>        -0.5739
     22 H1        -11.4389   -1.6747   -0.8870 H         1 <0>         0.4227
     23 C18        -9.7620   -1.9435   -2.0906 C.ar      1 <0>         0.3188
     24 N4        -10.0946   -2.2662   -3.3397 N.ar      1 <0>        -0.5382
     25 C19        -9.1677   -2.4762   -4.2488 C.ar      1 <0>         0.3262
     26 N5         -7.8764   -2.3762   -3.9883 N.ar      1 <0>        -0.5513
     27 N6         -2.1353   -2.0437   -3.8967 N.3       1 <0>        -0.8282
     28 Cl1         3.6064   -5.2818    1.4010 Cl        1 <0>        -0.0635
     29 H2          1.2369   -1.3295   -0.0954 H         1 <0>         0.1341
     30 H3          3.2635   -2.6478    0.3704 H         1 <0>         0.1369
     31 H4          0.8413   -5.8951    1.7102 H         1 <0>         0.1371
     32 H5         -1.1844   -4.5770    1.2393 H         1 <0>         0.1346
     33 H6         -2.1305   -2.3616    0.9414 H         1 <0>         0.0801
     34 H7         -1.1200   -1.0069    0.3828 H         1 <0>         0.0795
     35 H8         -1.2690   -2.9197   -1.6898 H         1 <0>         0.3975
     36 H9         -3.6288    0.1387   -3.4712 H         1 <0>         0.0708
     37 H10        -4.5423   -0.9832   -4.5090 H         1 <0>         0.0833
     38 H11        -5.0732   -0.3853   -1.5618 H         1 <0>         0.1069
     39 H12        -6.0931    0.0874   -2.9452 H         1 <0>         0.0616
     40 H13        -4.9678   -3.0812   -1.1155 H         1 <0>         0.0570
     41 H14        -5.9313   -4.0500   -2.2603 H         1 <0>         0.0721
     42 H15        -4.4469   -3.4248   -4.1048 H         1 <0>         0.0927
     43 H16        -3.4638   -4.0803   -2.7728 H         1 <0>         0.0710
     44 H17        -7.4532   -1.3059    0.2385 H         1 <0>         0.1541
     45 H18        -9.9142   -1.1444    1.0866 H         1 <0>         0.1827
     46 H19        -9.4749   -2.7364   -5.2509 H         1 <0>         0.1992
     47 H20        -1.5959   -1.1912   -3.8738 H         1 <0>         0.3485
     48 H21        -1.5659   -2.8386   -3.6478 H         1 <0>         0.3410
@<TRIPOS>BOND
     1    1    6 ar
     2    1    2 ar
     3    1   29 1
     4    2    3 ar
     5    2   30 1
     6    3    4 ar
     7    3   28 1
     8    4    5 ar
     9    4   31 1
    10    5    6 ar
    11    5   32 1
    12    6    7 1
    13    7    8 1
    14    7   33 1
    15    7   34 1
    16    8    9 am
    17    8   35 1
    18    9   10 2
    19    9   11 1
    20   11   16 1
    21   11   12 1
    22   11   27 1
    23   12   13 1
    24   12   36 1
    25   12   37 1
    26   13   14 1
    27   13   38 1
    28   13   39 1
    29   14   15 1
    30   14   17 1
    31   15   16 1
    32   15   40 1
    33   15   41 1
    34   16   42 1
    35   16   43 1
    36   17   26 ar
    37   17   18 ar
    38   18   23 ar
    39   18   19 1
    40   19   20 2
    41   19   44 1
    42   20   21 1
    43   20   45 1
    44   21   22 1
    45   21   23 1
    46   23   24 ar
    47   24   25 ar
    48   25   26 ar
    49   25   46 1
    50   27   47 1
    51   27   48 1
@<TRIPOS>MOLECULE
CHEMBL598194
   49    52     0     0     0
SMALL
USER_CHARGES

@<TRIPOS>ATOM
      1 C1         -0.4027    1.8010   -0.1864 C.ar      1 <0>        -0.0842
      2 C2          0.6824    2.6545   -0.2526 C.ar      1 <0>        -0.1098
      3 C3          1.9664    2.1399   -0.2772 C.ar      1 <0>        -0.0197
      4 C4          2.1634    0.7711   -0.2356 C.ar      1 <0>        -0.1111
      5 C5          1.0775   -0.0814   -0.1694 C.ar      1 <0>        -0.0875
      6 C6         -0.2053    0.4334   -0.1449 C.ar      1 <0>        -0.1260
      7 C7         -1.3888   -0.4966   -0.0723 C.3       1 <0>         0.1619
      8 N1         -1.8187   -0.8466   -1.4284 N.am      1 <0>        -0.7220
      9 C8         -2.8677   -1.6730   -1.6106 C.2       1 <0>         0.5030
     10 O1         -3.4557   -2.1270   -0.6519 O.2       1 <0>        -0.4626
     11 C9         -3.3100   -2.0330   -3.0055 C.3       1 <0>         0.0488
     12 C10        -4.1751   -0.9054   -3.5730 C.3       1 <0>        -0.1516
     13 C11        -5.3868   -0.6885   -2.6611 C.3       1 <0>         0.1540
     14 N2         -6.0921   -1.9673   -2.4996 N.pl3     1 <0>        -0.6531
     15 C12        -5.3328   -3.1404   -2.0455 C.3       1 <0>         0.1333
     16 C13        -4.1217   -3.3298   -2.9643 C.3       1 <0>        -0.1390
     17 C14        -7.4452   -2.0649   -2.7696 C.ar      1 <0>         0.4631
     18 C15        -8.3977   -1.8322   -1.7655 C.ar      1 <0>        -0.2032
     19 C16        -8.3434   -1.4733   -0.3497 C.2       1 <0>        -0.1726
     20 C17        -9.6136   -1.3920    0.0793 C.2       1 <0>         0.0668
     21 N3        -10.4712   -1.6712   -0.9532 N.pl3     1 <0>        -0.5703
     22 H1        -11.4389   -1.6747   -0.8870 H         1 <0>         0.4276
     23 C18        -9.7620   -1.9435   -2.0906 C.ar      1 <0>         0.3220
     24 N4        -10.0946   -2.2662   -3.3397 N.ar      1 <0>        -0.5256
     25 C19        -9.1677   -2.4762   -4.2488 C.ar      1 <0>         0.3266
     26 N5         -7.8764   -2.3762   -3.9883 N.ar      1 <0>        -0.5515
     27 N6         -2.1298   -2.2213   -3.8598 N.4       1 <0>        -0.6332
     28 Cl1         3.3298    3.2113   -0.3609 Cl        1 <0>        -0.0508
     29 H2         -1.4049    2.2028   -0.1627 H         1 <0>         0.1359
     30 H3          0.5280    3.7229   -0.2854 H         1 <0>         0.1408
     31 H4          3.1655    0.3688   -0.2551 H         1 <0>         0.1403
     32 H5          1.2311   -1.1499   -0.1373 H         1 <0>         0.1346
     33 H6         -1.1068   -1.4024    0.4645 H         1 <0>         0.0921
     34 H7         -2.2070   -0.0032    0.4523 H         1 <0>         0.0922
     35 H8         -1.3485   -0.4835   -2.1952 H         1 <0>         0.3939
     36 H9         -3.5892    0.0123   -3.6239 H         1 <0>         0.0997
     37 H10        -4.5158   -1.1760   -4.5724 H         1 <0>         0.1114
     38 H11        -5.0521   -0.3304   -1.6876 H         1 <0>         0.0707
     39 H12        -6.0567    0.0438   -3.1116 H         1 <0>         0.0934
     40 H13        -4.9936   -2.9822   -1.0218 H         1 <0>         0.1152
     41 H14        -5.9671   -4.0257   -2.0898 H         1 <0>         0.0850
     42 H15        -4.4628   -3.5775   -3.9695 H         1 <0>         0.1034
     43 H16        -3.4978   -4.1376   -2.5819 H         1 <0>         0.1002
     44 H17        -7.4532   -1.3059    0.2385 H         1 <0>         0.1546
     45 H18        -9.9142   -1.1444    1.0866 H         1 <0>         0.1869
     46 H19        -9.4749   -2.7364   -5.2509 H         1 <0>         0.2027
     47 H20        -1.5589   -2.9644   -3.4856 H         1 <0>         0.4395
     48 H21        -2.4258   -2.4624   -4.7938 H         1 <0>         0.4445
     49 H22        -1.5943   -1.3666   -3.8867 H         1 <0>         0.4298
@<TRIPOS>BOND
     1    1    6 ar
     2    1    2 ar
     3    1   29 1
     4    2    3 ar
     5    2   30 1
     6    3    4 ar
     7    3   28 1
     8    4    5 ar
     9    4   31 1
    10    5    6 ar
    11    5   32 1
    12    6    7 1
    13    7    8 1
    14    7   33 1
    15    7   34 1
    16    8    9 am
    17    8   35 1
    18    9   10 2
    19    9   11 1
    20   11   16 1
    21   11   12 1
    22   11   27 1
    23   12   13 1
    24   12   36 1
    25   12   37 1
    26   13   14 1
    27   13   38 1
    28   13   39 1
    29   14   15 1
    30   14   17 1
    31   15   16 1
    32   15   40 1
    33   15   41 1
    34   16   42 1
    35   16   43 1
    36   17   26 ar
    37   17   18 ar
    38   18   23 ar
    39   18   19 1
    40   19   20 2
    41   19   44 1
    42   20   21 1
    43   20   45 1
    44   21   22 1
    45   21   23 1
    46   23   24 ar
    47   24   25 ar
    48   25   26 ar
    49   25   46 1
    50   27   47 1
    51   27   48 1
    52   27   49 1
@<TRIPOS>MOLECULE
CHEMBL404554
   74    80     0     0     0
SMALL
USER_CHARGES

@<TRIPOS>ATOM
      1 C1         -0.0225    1.8097    0.0120 C.3       1 <0>        -0.1490
      2 S1          0.0021   -0.0041    0.0020 S.3       1 <0>         0.0304
      3 C2         -1.7016   -0.4536    0.0159 C.ar      1 <0>         0.3272
      4 N1         -2.6174    0.5141    0.0243 N.ar      1 <0>        -0.5277
      5 C3         -3.9053    0.2400    0.0344 C.ar      1 <0>         0.2400
      6 C4         -4.3044   -1.1092    0.0361 C.ar      1 <0>        -0.2288
      7 C5         -5.6573   -1.4815    0.0460 C.ar      1 <0>         0.0088
      8 C6         -5.9597   -2.8353    0.0465 C.ar      1 <0>        -0.1093
      9 C7         -4.9101   -3.7806    0.0372 C.ar      1 <0>         0.2471
     10 N2         -3.6450   -3.4035    0.0283 N.ar      1 <0>        -0.4556
     11 C8         -3.3020   -2.1154    0.0269 C.ar      1 <0>         0.3664
     12 N3         -2.0179   -1.7350    0.0120 N.ar      1 <0>        -0.4844
     13 C9         -5.2358   -5.2255    0.0378 C.ar      1 <0>        -0.0205
     14 C10        -6.3516   -5.6914    0.7329 C.ar      1 <0>        -0.0761
     15 C11        -6.6501   -7.0385    0.7294 C.ar      1 <0>        -0.1016
     16 C12        -5.8450   -7.9265    0.0386 C.ar      1 <0>        -0.1450
     17 C13        -4.7366   -7.4705   -0.6524 C.ar      1 <0>        -0.0973
     18 C14        -4.4313   -6.1249   -0.6615 C.ar      1 <0>        -0.0684
     19 C15        -6.1764   -9.3966    0.0392 C.3       1 <0>         0.0423
     20 N4         -7.0625   -9.6993   -1.0927 N.4       1 <0>        -0.3825
     21 C16        -8.3422   -9.0041   -0.9099 C.3       1 <0>        -0.0130
     22 C17        -9.2390   -9.2504   -2.1250 C.3       1 <0>        -0.1352
     23 C18        -9.4895  -10.7541   -2.2712 C.3       1 <0>        -0.0139
     24 C19        -8.1443  -11.4769   -2.3866 C.3       1 <0>        -0.1391
     25 C20        -7.2881  -11.1480   -1.1617 C.3       1 <0>        -0.0054
     26 C21       -10.3073  -11.0106   -3.5108 C.2       1 <0>         0.0683
     27 C22        -9.8028  -11.1568   -4.8028 C.2       1 <0>        -0.2433
     28 C23       -10.8583  -11.3762   -5.6425 C.2       1 <0>         0.1373
     29 N5        -11.9902  -11.3653   -4.8827 N.pl3     1 <0>        -0.4598
     30 H1        -12.8962  -11.4948   -5.2040 H         1 <0>         0.4454
     31 N6        -11.6093  -11.1390   -3.5538 N.2       1 <0>        -0.2625
     32 C24       -10.7862  -11.5858   -7.1050 C.ar      1 <0>         0.0015
     33 C25        -9.5562  -11.5793   -7.7726 C.ar      1 <0>        -0.1460
     34 C26        -9.5350  -11.7787   -9.1372 C.ar      1 <0>         0.1105
     35 N7        -10.6528  -11.9730   -9.8110 N.ar      1 <0>        -0.4741
     36 C27       -11.8328  -11.9866   -9.2207 C.ar      1 <0>         0.1140
     37 C28       -11.9455  -11.8018   -7.8586 C.ar      1 <0>        -0.1644
     38 C29        -7.3718   -3.2860    0.0573 C.ar      1 <0>        -0.0500
     39 C30        -7.8088   -4.2401   -0.8605 C.ar      1 <0>        -0.0995
     40 C31        -9.1245   -4.6562   -0.8454 C.ar      1 <0>        -0.1211
     41 C32       -10.0092   -4.1282    0.0777 C.ar      1 <0>        -0.1085
     42 C33        -9.5813   -3.1812    0.9908 C.ar      1 <0>        -0.1113
     43 C34        -8.2666   -2.7617    0.9890 C.ar      1 <0>        -0.1029
     44 H2          1.0001    2.1870    0.0043 H         1 <0>         0.1178
     45 H3         -0.5497    2.1708   -0.8711 H         1 <0>         0.0934
     46 H4         -0.5327    2.1613    0.9088 H         1 <0>         0.0934
     47 H5         -4.6386    1.0328    0.0415 H         1 <0>         0.1879
     48 H6         -6.4393   -0.7367    0.0534 H         1 <0>         0.1576
     49 H7         -6.9805   -4.9992    1.2732 H         1 <0>         0.1443
     50 H8         -7.5139   -7.4005    1.2673 H         1 <0>         0.1361
     51 H9         -4.1117   -8.1686   -1.1895 H         1 <0>         0.1372
     52 H10        -3.5683   -5.7695   -1.2049 H         1 <0>         0.1436
     53 H11        -5.2579   -9.9762   -0.0533 H         1 <0>         0.1397
     54 H12        -6.6772   -9.6558    0.9721 H         1 <0>         0.1376
     55 H13        -8.8347   -9.3802   -0.0132 H         1 <0>         0.1315
     56 H14        -8.1621   -7.9344   -0.8028 H         1 <0>         0.1353
     57 H15       -10.1894   -8.7349   -1.9866 H         1 <0>         0.1145
     58 H16        -8.7475   -8.8744   -3.0223 H         1 <0>         0.0923
     59 H17       -10.0265  -11.1209   -1.3965 H         1 <0>         0.1051
     60 H18        -8.3122  -12.5528   -2.4351 H         1 <0>         0.1174
     61 H19        -7.6301  -11.1471   -3.2893 H         1 <0>         0.0944
     62 H20        -6.3297  -11.6612   -1.2406 H         1 <0>         0.1354
     63 H21        -7.8031  -11.4785   -0.2597 H         1 <0>         0.1321
     64 H22        -8.7626  -11.1054   -5.0888 H         1 <0>         0.1527
     65 H23        -8.6375  -11.4202   -7.2276 H         1 <0>         0.1414
     66 H24        -8.5908  -11.7755   -9.6614 H         1 <0>         0.1656
     67 H25       -12.7221  -12.1489   -9.8116 H         1 <0>         0.1652
     68 H26       -12.9142  -11.8191   -7.3814 H         1 <0>         0.1337
     69 H27        -7.1192   -4.6525   -1.5821 H         1 <0>         0.1207
     70 H28        -9.4642   -5.3953   -1.5559 H         1 <0>         0.1229
     71 H29       -11.0381   -4.4564    0.0854 H         1 <0>         0.1265
     72 H30       -10.2765   -2.7723    1.7090 H         1 <0>         0.1304
     73 H31        -7.9325   -2.0256    1.7052 H         1 <0>         0.1283
     74 H32        -6.6312   -9.3859   -1.9493 H         1 <0>         0.4227
@<TRIPOS>BOND
     1    1    2 1
     2    1   44 1
     3    1   45 1
     4    1   46 1
     5    2    3 1
     6    3   12 ar
     7    3    4 ar
     8    4    5 ar
     9    5    6 ar
    10    5   47 1
    11    6   11 ar
    12    6    7 ar
    13    7    8 ar
    14    7   48 1
    15    8    9 ar
    16    8   38 1
    17    9   10 ar
    18    9   13 1
    19   10   11 ar
    20   11   12 ar
    21   13   18 ar
    22   13   14 ar
    23   14   15 ar
    24   14   49 1
    25   15   16 ar
    26   15   50 1
    27   16   17 ar
    28   16   19 1
    29   17   18 ar
    30   17   51 1
    31   18   52 1
    32   19   20 1
    33   19   53 1
    34   19   54 1
    35   20   25 1
    36   20   21 1
    37   20   74 1
    38   21   22 1
    39   21   55 1
    40   21   56 1
    41   22   23 1
    42   22   57 1
    43   22   58 1
    44   23   24 1
    45   23   26 1
    46   23   59 1
    47   24   25 1
    48   24   60 1
    49   24   61 1
    50   25   62 1
    51   25   63 1
    52   26   31 2
    53   26   27 1
    54   27   28 2
    55   27   64 1
    56   28   29 1
    57   28   32 1
    58   29   30 1
    59   29   31 1
    60   32   37 ar
    61   32   33 ar
    62   33   34 ar
    63   33   65 1
    64   34   35 ar
    65   34   66 1
    66   35   36 ar
    67   36   37 ar
    68   36   67 1
    69   37   68 1
    70   38   43 ar
    71   38   39 ar
    72   39   40 ar
    73   39   69 1
    74   40   41 ar
    75   40   70 1
    76   41   42 ar
    77   41   71 1
    78   42   43 ar
    79   42   72 1
    80   43   73 1
@<TRIPOS>MOLECULE
CHEMBL404554
   74    80     0     0     0
SMALL
USER_CHARGES

@<TRIPOS>ATOM
      1 C1         -0.0225    1.8097    0.0120 C.3       1 <0>        -0.1491
      2 S1          0.0021   -0.0041    0.0020 S.3       1 <0>         0.0312
      3 C2         -1.7016   -0.4536    0.0159 C.ar      1 <0>         0.3275
      4 N1         -2.6174    0.5141    0.0243 N.ar      1 <0>        -0.5273
      5 C3         -3.9053    0.2400    0.0344 C.ar      1 <0>         0.2403
      6 C4         -4.3044   -1.1092    0.0361 C.ar      1 <0>        -0.2288
      7 C5         -5.6573   -1.4815    0.0460 C.ar      1 <0>         0.0096
      8 C6         -5.9597   -2.8353    0.0465 C.ar      1 <0>        -0.1102
      9 C7         -4.9101   -3.7806    0.0372 C.ar      1 <0>         0.2460
     10 N2         -3.6450   -3.4035    0.0283 N.ar      1 <0>        -0.4554
     11 C8         -3.3020   -2.1154    0.0269 C.ar      1 <0>         0.3666
     12 N3         -2.0179   -1.7350    0.0120 N.ar      1 <0>        -0.4846
     13 C9         -5.2358   -5.2255    0.0378 C.ar      1 <0>        -0.0189
     14 C10        -6.3516   -5.6914    0.7329 C.ar      1 <0>        -0.0760
     15 C11        -6.6501   -7.0385    0.7294 C.ar      1 <0>        -0.1017
     16 C12        -5.8450   -7.9265    0.0386 C.ar      1 <0>        -0.1470
     17 C13        -4.7366   -7.4705   -0.6524 C.ar      1 <0>        -0.0973
     18 C14        -4.4313   -6.1249   -0.6615 C.ar      1 <0>        -0.0685
     19 C15        -6.1764   -9.3966    0.0392 C.3       1 <0>         0.0426
     20 N4         -7.0625   -9.6993   -1.0927 N.4       1 <0>        -0.3834
     21 C16        -8.3422   -9.0041   -0.9099 C.3       1 <0>        -0.0122
     22 C17        -9.2390   -9.2504   -2.1250 C.3       1 <0>        -0.1459
     23 C18        -9.4895  -10.7541   -2.2712 C.3       1 <0>        -0.0310
     24 C19        -8.1443  -11.4769   -2.3866 C.3       1 <0>        -0.1408
     25 C20        -7.2881  -11.1480   -1.1617 C.3       1 <0>        -0.0059
     26 C21       -10.3073  -11.0106   -3.5108 C.2       1 <0>         0.0760
     27 C22       -11.2475  -11.9692   -3.6575 C.2       1 <0>        -0.2309
     28 C23       -11.7692  -11.8662   -4.9620 C.2       1 <0>         0.1195
     29 N5        -11.1527  -10.8731   -5.5676 N.2       1 <0>        -0.2572
     30 H1         -9.6437   -9.5692   -4.8464 H         1 <0>         0.4378
     31 N6        -10.2330  -10.3187   -4.6682 N.pl3     1 <0>        -0.4664
     32 C24       -12.8265  -12.7254   -5.5496 C.ar      1 <0>         0.0172
     33 C25       -13.4145  -13.7512   -4.8043 C.ar      1 <0>        -0.1495
     34 C26       -14.3942  -14.5267   -5.3893 C.ar      1 <0>         0.1037
     35 N7        -14.7759  -14.3103   -6.6336 N.ar      1 <0>        -0.4761
     36 C27       -14.2465  -13.3530   -7.3710 C.ar      1 <0>         0.1047
     37 C28       -13.2655  -12.5273   -6.8617 C.ar      1 <0>        -0.1456
     38 C29        -7.3718   -3.2860    0.0573 C.ar      1 <0>        -0.0493
     39 C30        -7.8088   -4.2401   -0.8605 C.ar      1 <0>        -0.1002
     40 C31        -9.1245   -4.6562   -0.8454 C.ar      1 <0>        -0.1219
     41 C32       -10.0092   -4.1282    0.0777 C.ar      1 <0>        -0.1086
     42 C33        -9.5813   -3.1812    0.9908 C.ar      1 <0>        -0.1107
     43 C34        -8.2666   -2.7617    0.9890 C.ar      1 <0>        -0.1023
     44 H2          1.0001    2.1870    0.0043 H         1 <0>         0.1181
     45 H3         -0.5497    2.1708   -0.8711 H         1 <0>         0.0935
     46 H4         -0.5327    2.1613    0.9088 H         1 <0>         0.0936
     47 H5         -4.6386    1.0328    0.0415 H         1 <0>         0.1882
     48 H6         -6.4393   -0.7367    0.0534 H         1 <0>         0.1579
     49 H7         -6.9805   -4.9992    1.2732 H         1 <0>         0.1448
     50 H8         -7.5139   -7.4005    1.2673 H         1 <0>         0.1362
     51 H9         -4.1117   -8.1686   -1.1895 H         1 <0>         0.1369
     52 H10        -3.5683   -5.7695   -1.2049 H         1 <0>         0.1440
     53 H11        -5.2579   -9.9762   -0.0533 H         1 <0>         0.1403
     54 H12        -6.6772   -9.6558    0.9721 H         1 <0>         0.1387
     55 H13        -8.8347   -9.3802   -0.0132 H         1 <0>         0.1347
     56 H14        -8.1621   -7.9344   -0.8028 H         1 <0>         0.1372
     57 H15       -10.1894   -8.7349   -1.9866 H         1 <0>         0.1195
     58 H16        -8.7475   -8.8744   -3.0223 H         1 <0>         0.0845
     59 H17       -10.0265  -11.1209   -1.3965 H         1 <0>         0.1180
     60 H18        -8.3122  -12.5528   -2.4351 H         1 <0>         0.1216
     61 H19        -7.6301  -11.1471   -3.2893 H         1 <0>         0.0888
     62 H20        -6.3297  -11.6612   -1.2406 H         1 <0>         0.1364
     63 H21        -7.8031  -11.4785   -0.2597 H         1 <0>         0.1347
     64 H22       -11.5459  -12.6873   -2.9081 H         1 <0>         0.1559
     65 H23       -13.1063  -13.9343   -3.7855 H         1 <0>         0.1391
     66 H24       -14.8544  -15.3217   -4.8214 H         1 <0>         0.1630
     67 H25       -14.5887  -13.2110   -8.3855 H         1 <0>         0.1628
     68 H26       -12.8398  -11.7426   -7.4694 H         1 <0>         0.1415
     69 H27        -7.1192   -4.6525   -1.5821 H         1 <0>         0.1201
     70 H28        -9.4642   -5.3953   -1.5559 H         1 <0>         0.1215
     71 H29       -11.0381   -4.4564    0.0854 H         1 <0>         0.1266
     72 H30       -10.2765   -2.7723    1.7090 H         1 <0>         0.1309
     73 H31        -7.9325   -2.0256    1.7052 H         1 <0>         0.1288
     74 H32        -6.6312   -9.3859   -1.9493 H         1 <0>         0.4220
@<TRIPOS>BOND
     1    1    2 1
     2    1   44 1
     3    1   45 1
     4    1   46 1
     5    2    3 1
     6    3   12 ar
     7    3    4 ar
     8    4    5 ar
     9    5    6 ar
    10    5   47 1
    11    6   11 ar
    12    6    7 ar
    13    7    8 ar
    14    7   48 1
    15    8    9 ar
    16    8   38 1
    17    9   10 ar
    18    9   13 1
    19   10   11 ar
    20   11   12 ar
    21   13   18 ar
    22   13   14 ar
    23   14   15 ar
    24   14   49 1
    25   15   16 ar
    26   15   50 1
    27   16   17 ar
    28   16   19 1
    29   17   18 ar
    30   17   51 1
    31   18   52 1
    32   19   20 1
    33   19   53 1
    34   19   54 1
    35   20   25 1
    36   20   21 1
    37   20   74 1
    38   21   22 1
    39   21   55 1
    40   21   56 1
    41   22   23 1
    42   22   57 1
    43   22   58 1
    44   23   24 1
    45   23   59 1
    46   23   26 1
    47   24   25 1
    48   24   60 1
    49   24   61 1
    50   25   62 1
    51   25   63 1
    52   26   27 2
    53   26   31 1
    54   27   28 1
    55   27   64 1
    56   28   29 2
    57   28   32 1
    58   29   31 1
    59   30   31 1
    60   32   37 ar
    61   32   33 ar
    62   33   34 ar
    63   33   65 1
    64   34   35 ar
    65   34   66 1
    66   35   36 ar
    67   36   37 ar
    68   36   67 1
    69   37   68 1
    70   38   43 ar
    71   38   39 ar
    72   39   40 ar
    73   39   69 1
    74   40   41 ar
    75   40   70 1
    76   41   42 ar
    77   41   71 1
    78   42   43 ar
    79   42   72 1
    80   43   73 1
@<TRIPOS>MOLECULE
CHEMBL425155
   59    64     0     0     0
SMALL
USER_CHARGES

@<TRIPOS>ATOM
      1 C1         -0.0167    1.3791    0.0096 C.ar      1 <0>        -0.1190
      2 C2          1.1686    2.0923    0.0021 C.ar      1 <0>        -0.1134
      3 C3          2.3774    1.4267   -0.0135 C.ar      1 <0>        -0.1033
      4 C4          2.4025    0.0330   -0.0212 C.ar      1 <0>        -0.0354
      5 C5          1.2049   -0.6804   -0.0131 C.ar      1 <0>        -0.1022
      6 C6          0.0021   -0.0041    0.0020 C.ar      1 <0>        -0.1241
      7 C7          3.6980   -0.6879   -0.0385 C.ar      1 <0>        -0.0814
      8 C8          4.6841   -0.3489   -0.9627 C.ar      1 <0>        -0.0530
      9 C9          5.8876   -1.0590   -0.9374 C.ar      1 <0>         0.0303
     10 C10         6.0599   -2.0752    0.0049 C.ar      1 <0>         0.1182
     11 N1          5.1084   -2.3706    0.8635 N.ar      1 <0>        -0.4617
     12 C11         3.9526   -1.7194    0.8804 C.ar      1 <0>         0.1165
     13 C12         2.9179   -2.0881    1.8739 C.ar      1 <0>         0.0231
     14 C13         2.0882   -1.1075    2.4175 C.ar      1 <0>        -0.0930
     15 C14         1.1261   -1.4572    3.3427 C.ar      1 <0>        -0.0932
     16 C15         0.9836   -2.7773    3.7314 C.ar      1 <0>        -0.1752
     17 C16         1.8039   -3.7543    3.1962 C.ar      1 <0>        -0.0949
     18 C17         2.7655   -3.4181    2.2655 C.ar      1 <0>        -0.0883
     19 C18        -0.0692   -3.1524    4.7423 C.3       1 <0>         0.0490
     20 N2         -1.3218   -3.4774    4.0472 N.4       1 <0>        -0.5090
     21 C19        -2.3480   -3.8431    5.0326 C.3       1 <0>         0.0444
     22 C20        -3.6331   -4.1765    4.3195 C.ar      1 <0>        -0.1583
     23 C21        -4.5568   -3.1797    4.0618 C.ar      1 <0>        -0.0884
     24 C22        -5.7353   -3.4795    3.4090 C.ar      1 <0>        -0.0856
     25 C23        -5.9936   -4.7889    3.0091 C.ar      1 <0>         0.0240
     26 C24        -5.0595   -5.7890    3.2709 C.ar      1 <0>        -0.0994
     27 C25        -3.8820   -5.4772    3.9201 C.ar      1 <0>        -0.0881
     28 C26        -7.2594   -5.1174    2.3072 C.2       1 <0>         0.0307
     29 C27        -7.5691   -6.3860    1.8960 C.2       1 <0>        -0.2728
     30 S1         -9.0744   -6.1646    1.1854 S.3       1 <0>         0.4402
     31 N3         -9.2508   -4.5736    1.4176 N.2       1 <0>        -0.2382
     32 N4         -8.1817   -4.2082    2.0336 N.2       1 <0>        -0.2381
     33 C28         6.9664   -0.7381   -1.8979 C.2       1 <0>         0.0621
     34 N5          8.1586   -1.3306   -1.9867 N.2       1 <0>        -0.3573
     35 N6          8.8029   -0.7623   -2.9479 N.2       1 <0>        -0.1781
     36 N7          8.0683    0.1592   -3.4652 N.2       1 <0>        -0.1792
     37 N8          6.9362    0.1967   -2.8494 N.2       1 <0>        -0.3589
     38 H1         -0.9603    1.9042    0.0260 H         1 <0>         0.1214
     39 H2          1.1479    3.1721    0.0082 H         1 <0>         0.1267
     40 H3          3.3022    1.9845   -0.0200 H         1 <0>         0.1294
     41 H4          1.2184   -1.7603   -0.0194 H         1 <0>         0.1182
     42 H5         -0.9264   -0.5557    0.0083 H         1 <0>         0.1182
     43 H6          4.5225    0.4418   -1.6803 H         1 <0>         0.1476
     44 H7          6.9880   -2.6270    0.0287 H         1 <0>         0.1719
     45 H8          2.1987   -0.0766    2.1151 H         1 <0>         0.1408
     46 H9          0.4832   -0.6988    3.7645 H         1 <0>         0.1295
     47 H10         1.6884   -4.7831    3.5041 H         1 <0>         0.1301
     48 H11         3.4019   -4.1824    1.8445 H         1 <0>         0.1408
     49 H12         0.2661   -4.0195    5.3114 H         1 <0>         0.1364
     50 H13        -0.2365   -2.3155    5.4203 H         1 <0>         0.1362
     51 H14        -1.6322   -2.6748    3.5204 H         1 <0>         0.4272
     52 H15        -2.0128   -4.7102    5.6017 H         1 <0>         0.1388
     53 H16        -2.5153   -3.0061    5.7106 H         1 <0>         0.1389
     54 H17        -4.3556   -2.1650    4.3722 H         1 <0>         0.1379
     55 H18        -6.4562   -2.7006    3.2088 H         1 <0>         0.1460
     56 H19        -5.2548   -6.8057    2.9633 H         1 <0>         0.1380
     57 H20        -3.1556   -6.2509    4.1202 H         1 <0>         0.1382
     58 H21        -6.9939   -7.2940    2.0010 H         1 <0>         0.2119
     59 H22        -1.1669   -4.2522    3.4196 H         1 <0>         0.4268
@<TRIPOS>BOND
     1    1    6 ar
     2    1    2 ar
     3    1   38 1
     4    2    3 ar
     5    2   39 1
     6    3    4 ar
     7    3   40 1
     8    4    5 ar
     9    4    7 1
    10    5    6 ar
    11    5   41 1
    12    6   42 1
    13    7   12 ar
    14    7    8 ar
    15    8    9 ar
    16    8   43 1
    17    9   10 ar
    18    9   33 1
    19   10   11 ar
    20   10   44 1
    21   11   12 ar
    22   12   13 1
    23   13   18 ar
    24   13   14 ar
    25   14   15 ar
    26   14   45 1
    27   15   16 ar
    28   15   46 1
    29   16   17 ar
    30   16   19 1
    31   17   18 ar
    32   17   47 1
    33   18   48 1
    34   19   20 1
    35   19   49 1
    36   19   50 1
    37   20   21 1
    38   20   51 1
    39   20   59 1
    40   21   22 1
    41   21   52 1
    42   21   53 1
    43   22   27 ar
    44   22   23 ar
    45   23   24 ar
    46   23   54 1
    47   24   25 ar
    48   24   55 1
    49   25   26 ar
    50   25   28 1
    51   26   27 ar
    52   26   56 1
    53   27   57 1
    54   28   32 1
    55   28   29 2
    56   29   30 1
    57   29   58 1
    58   30   31 1
    59   31   32 2
    60   33   34 2
    61   33   37 1
    62   34   35 1
    63   35   36 2
    64   36   37 1
@<TRIPOS>MOLECULE
CHEMBL188434
   48    51     0     0     0
SMALL
USER_CHARGES

@<TRIPOS>ATOM
      1 C1         -0.4429   -0.9521   -1.3996 C.3       1 <0>        -0.1714
      2 C2         -0.0580    0.2086   -0.4802 C.3       1 <0>         0.0972
      3 N1          0.3081   -0.3137    0.8387 N.pl3     1 <0>        -0.4625
      4 C3          1.5756   -0.6232    1.2698 C.ar      1 <0>         0.1026
      5 C4          2.8467   -0.5740    0.7079 C.ar      1 <0>        -0.1420
      6 C5          3.9243   -0.9795    1.4651 C.ar      1 <0>         0.1365
      7 N2          3.7687   -1.4105    2.7061 N.ar      1 <0>        -0.4790
      8 C6          2.5897   -1.4778    3.2867 C.ar      1 <0>         0.2027
      9 C7          1.4408   -1.0872    2.5946 C.ar      1 <0>        -0.0030
     10 N3          0.1240   -1.0388    2.9005 N.2       1 <0>        -0.4328
     11 C8         -0.5489   -0.5791    1.8743 C.2       1 <0>         0.3321
     12 C9         -2.0146   -0.3798    1.8382 C.2       1 <0>         0.1344
     13 C10        -2.9476   -0.6525    2.9386 C.2       1 <0>         0.3630
     14 N4         -4.1529   -0.3556    2.5371 N.2       1 <0>        -0.3435
     15 O1         -4.0662    0.1090    1.2018 O.3       1 <0>         0.0467
     16 N5         -2.7018    0.0752    0.8223 N.2       1 <0>        -0.2552
     17 N6         -2.6057   -1.1427    4.1920 N.pl3     1 <0>        -0.8001
     18 C11         3.0422   -0.0862   -0.7045 C.3       1 <0>         0.1004
     19 N7          3.0393    1.3828   -0.7200 N.3       1 <0>        -0.6766
     20 C12         3.0994    1.8948   -2.0956 C.3       1 <0>         0.0704
     21 C13         4.5595    1.9682   -2.5514 C.3       1 <0>        -0.1394
     22 C14         4.6203    2.5764   -3.9542 C.3       1 <0>        -0.0069
     23 N8          4.0448    3.9265   -3.9315 N.4       1 <0>        -0.5057
     24 C15         2.6252    3.8567   -3.5647 C.3       1 <0>        -0.0022
     25 C16         2.4877    3.2978   -2.1469 C.3       1 <0>        -0.1556
     26 H1         -1.2449   -1.5294   -0.9396 H         1 <0>         0.0711
     27 H2         -0.7816   -0.5594   -2.3583 H         1 <0>         0.0856
     28 H3          0.4237   -1.5946   -1.5559 H         1 <0>         0.0645
     29 H4          0.7900    0.7444   -0.9069 H         1 <0>         0.0849
     30 H5         -0.9040    0.8885   -0.3797 H         1 <0>         0.1086
     31 H6          4.9152   -0.9450    1.0369 H         1 <0>         0.1674
     32 H7          2.5099   -1.8366    4.3023 H         1 <0>         0.1765
     33 H8         -1.6783   -1.3356    4.4010 H         1 <0>         0.4309
     34 H9         -3.2943   -1.2922    4.8587 H         1 <0>         0.4214
     35 H10         3.9954   -0.4517   -1.0865 H         1 <0>         0.0969
     36 H11         2.2325   -0.4577   -1.3326 H         1 <0>         0.0483
     37 H12         2.2346    1.7480   -0.2331 H         1 <0>         0.3481
     38 H13         2.5430    1.2302   -2.7565 H         1 <0>         0.0648
     39 H14         5.1259    2.5917   -1.8596 H         1 <0>         0.0996
     40 H15         4.9856    0.9652   -2.5708 H         1 <0>         0.1121
     41 H16         5.6585    2.6299   -4.2819 H         1 <0>         0.1374
     42 H17         4.0538    1.9521   -4.6452 H         1 <0>         0.1295
     43 H18         4.5384    4.4901   -3.2557 H         1 <0>         0.4300
     44 H19         2.1905    4.8555   -3.6048 H         1 <0>         0.1374
     45 H20         2.1013    3.2051   -4.2640 H         1 <0>         0.1311
     46 H21         1.4329    3.2451   -1.8771 H         1 <0>         0.1088
     47 H22         3.0111    3.9489   -1.4467 H         1 <0>         0.1014
     48 H23         4.1348    4.3448   -4.8453 H         1 <0>         0.4337
@<TRIPOS>BOND
     1    1    2 1
     2    1   26 1
     3    1   27 1
     4    1   28 1
     5    2    3 1
     6    2   29 1
     7    2   30 1
     8    3   11 1
     9    3    4 1
    10    4    9 ar
    11    4    5 ar
    12    5    6 ar
    13    5   18 1
    14    6    7 ar
    15    6   31 1
    16    7    8 ar
    17    8    9 ar
    18    8   32 1
    19    9   10 1
    20   10   11 2
    21   11   12 1
    22   12   16 2
    23   12   13 1
    24   13   14 2
    25   13   17 1
    26   14   15 1
    27   15   16 1
    28   17   33 1
    29   17   34 1
    30   18   19 1
    31   18   35 1
    32   18   36 1
    33   19   20 1
    34   19   37 1
    35   20   25 1
    36   20   21 1
    37   20   38 1
    38   21   22 1
    39   21   39 1
    40   21   40 1
    41   22   23 1
    42   22   41 1
    43   22   42 1
    44   23   24 1
    45   23   43 1
    46   23   48 1
    47   24   25 1
    48   24   44 1
    49   24   45 1
    50   25   46 1
    51   25   47 1
@<TRIPOS>MOLECULE
CHEMBL188434
   49    52     0     0     0
SMALL
USER_CHARGES

@<TRIPOS>ATOM
      1 C1         -0.9653   -0.9729    1.0914 C.3       1 <0>        -0.1766
      2 C2         -0.3908    0.1999    0.2944 C.3       1 <0>         0.0831
      3 N1          0.5813   -0.3016   -0.6802 N.pl3     1 <0>        -0.4450
      4 C3          0.3289   -0.6222   -1.9924 C.ar      1 <0>         0.1342
      5 C4         -0.7940   -0.6040   -2.8124 C.ar      1 <0>        -0.0626
      6 C5         -0.6667   -1.0110   -4.1228 C.ar      1 <0>         0.1203
      7 N2          0.4964   -1.4147   -4.6070 N.ar      1 <0>        -0.4385
      8 C6          1.5900   -1.4519   -3.8760 C.ar      1 <0>         0.2406
      9 C7          1.5550   -1.0574   -2.5364 C.ar      1 <0>         0.0349
     10 N3          2.4767   -0.9824   -1.5490 N.2       1 <0>        -0.4223
     11 C8          1.9129   -0.5329   -0.4549 C.2       1 <0>         0.3992
     12 C9          2.6091   -0.3115    0.8319 C.2       1 <0>         0.1036
     13 C10         4.0349   -0.5477    1.0907 C.2       1 <0>         0.3634
     14 N4          4.2821   -0.2400    2.3342 N.2       1 <0>        -0.3237
     15 O1          3.0710    0.1963    2.9251 O.3       1 <0>         0.0734
     16 N5          2.0615    0.1337    1.9333 N.2       1 <0>        -0.2349
     17 N6          4.9617   -1.0180    0.1696 N.pl3     1 <0>        -0.7998
     18 C11        -2.1268   -0.1476   -2.2773 C.3       1 <0>         0.0842
     19 N7         -2.1757    1.3206   -2.2722 N.3       1 <0>        -0.6775
     20 C12        -3.4095    1.8040   -1.6383 C.3       1 <0>         0.0702
     21 C13        -4.5357    1.8456   -2.6752 C.3       1 <0>        -0.1391
     22 C14        -5.7959    2.4245   -2.0286 C.3       1 <0>        -0.0083
     23 N8         -5.5225    3.7836   -1.5463 N.4       1 <0>        -0.5069
     24 C15        -4.4938    3.7433   -0.5000 C.3       1 <0>        -0.0034
     25 C16        -3.1835    3.2151   -1.0878 C.3       1 <0>        -0.1562
     26 H1         -1.5175   -1.6318    0.4213 H         1 <0>         0.0685
     27 H2         -0.1518   -1.5283    1.5581 H         1 <0>         0.0778
     28 H3         -1.6360   -0.5942    1.8627 H         1 <0>         0.1010
     29 H4         -1.1974    0.7137   -0.2285 H         1 <0>         0.0960
     30 H5          0.1020    0.8947    0.9745 H         1 <0>         0.1260
     31 H6         -1.5335   -1.0006   -4.7670 H         1 <0>         0.2177
     32 H7          2.5181   -1.7892   -4.3134 H         1 <0>         0.2294
     33 H8          4.6839   -1.2211   -0.7373 H         1 <0>         0.4274
     34 H9          5.8867   -1.1434    0.4332 H         1 <0>         0.4277
     35 H10        -2.9247   -0.5355   -2.9106 H         1 <0>         0.1168
     36 H11        -2.2567   -0.5190   -1.2608 H         1 <0>         0.0700
     37 H12        -1.3611    1.7079   -1.8201 H         1 <0>         0.3501
     38 H13        -3.6870    1.1351   -0.8237 H         1 <0>         0.0723
     39 H14        -4.2354    2.4738   -3.5138 H         1 <0>         0.1013
     40 H15        -4.7402    0.8358   -3.0311 H         1 <0>         0.1118
     41 H16        -6.5998    2.4553   -2.7641 H         1 <0>         0.1408
     42 H17        -6.0955    1.7954   -1.1904 H         1 <0>         0.1317
     43 H18        -5.1982    4.3529   -2.3137 H         1 <0>         0.4310
     44 H19        -4.3364    4.7477   -0.1070 H         1 <0>         0.1414
     45 H20        -4.8212    3.0861    0.3056 H         1 <0>         0.1333
     46 H21        -2.4215    3.1842   -0.3090 H         1 <0>         0.1100
     47 H22        -2.8551    3.8718   -1.8935 H         1 <0>         0.1035
     48 H23        -6.3692    4.1822   -1.1689 H         1 <0>         0.4383
     49 H24         0.5447   -1.6937   -5.5348 H         1 <0>         0.4643
@<TRIPOS>BOND
     1    1    2 1
     2    1   26 1
     3    1   27 1
     4    1   28 1
     5    2    3 1
     6    2   29 1
     7    2   30 1
     8    3   11 1
     9    3    4 1
    10    4    9 ar
    11    4    5 ar
    12    5    6 ar
    13    5   18 1
    14    6    7 ar
    15    6   31 1
    16    7    8 ar
    17    7   49 1
    18    8    9 ar
    19    8   32 1
    20    9   10 1
    21   10   11 2
    22   11   12 1
    23   12   16 2
    24   12   13 1
    25   13   14 2
    26   13   17 1
    27   14   15 1
    28   15   16 1
    29   17   33 1
    30   17   34 1
    31   18   19 1
    32   18   35 1
    33   18   36 1
    34   19   20 1
    35   19   37 1
    36   20   25 1
    37   20   21 1
    38   20   38 1
    39   21   22 1
    40   21   39 1
    41   21   40 1
    42   22   23 1
    43   22   41 1
    44   22   42 1
    45   23   24 1
    46   23   43 1
    47   23   48 1
    48   24   25 1
    49   24   44 1
    50   24   45 1
    51   25   46 1
    52   25   47 1
@<TRIPOS>MOLECULE
CHEMBL182101
   72    78     0     0     0
SMALL
USER_CHARGES

@<TRIPOS>ATOM
      1 C1         -0.0460   -3.3262   -1.4089 C.3       1 <0>         0.0757
      2 N1         -0.0096   -2.0939   -0.6175 N.pl3     1 <0>        -0.3729
      3 C2          0.1024   -0.8228   -1.0770 C.2       1 <0>         0.2808
      4 N2          0.0934   -0.0303   -0.0256 N.2       1 <0>        -0.3120
      5 N3         -0.0161   -0.7170    1.0539 N.2       1 <0>        -0.0281
      6 N4         -0.0895   -1.9746    0.7811 N.2       1 <0>        -0.0663
      7 C3          0.2137   -0.4056   -2.4921 C.ar      1 <0>        -0.0717
      8 C4         -0.1634   -1.2771   -3.5181 C.ar      1 <0>        -0.0460
      9 C5         -0.0403   -0.8390   -4.8347 C.ar      1 <0>        -0.0763
     10 C6          0.4548    0.4532   -5.0784 C.ar      1 <0>         0.1831
     11 N5          0.8005    1.2460   -4.0727 N.ar      1 <0>        -0.4587
     12 C7          0.6912    0.8653   -2.8183 C.ar      1 <0>         0.1699
     13 C8          0.5925    0.9347   -6.4722 C.ar      1 <0>        -0.0140
     14 C9          0.9480    0.0471   -7.4877 C.ar      1 <0>        -0.0823
     15 C10         1.0748    0.5017   -8.7843 C.ar      1 <0>        -0.1008
     16 C11         0.8506    1.8349   -9.0779 C.ar      1 <0>        -0.1490
     17 C12         0.4982    2.7203   -8.0749 C.ar      1 <0>        -0.0950
     18 C13         0.3617    2.2764   -6.7756 C.ar      1 <0>        -0.0729
     19 C14         0.9913    2.3250  -10.4960 C.3       1 <0>         0.0430
     20 N6         -0.3011    2.2090  -11.1847 N.4       1 <0>        -0.3851
     21 C15        -0.6727    0.7928  -11.2893 C.3       1 <0>        -0.0066
     22 C16        -2.0554    0.6706  -11.9332 C.3       1 <0>        -0.1647
     23 C17        -2.0186    1.2950  -13.3310 C.3       1 <0>         0.1610
     24 C18        -1.5581    2.7511  -13.2171 C.3       1 <0>        -0.1670
     25 C19        -0.1938    2.7962  -12.5256 C.3       1 <0>         0.0010
     26 N7         -3.3578    1.2497  -13.9233 N.am      1 <0>        -0.5373
     27 C20        -3.7061    0.5942  -15.1019 C.ar      1 <0>         0.0794
     28 C21        -2.9890   -0.1576  -16.0202 C.ar      1 <0>        -0.1045
     29 C22        -3.6297   -0.6925  -17.1205 C.ar      1 <0>        -0.1027
     30 C23        -4.9846   -0.4809  -17.3107 C.ar      1 <0>        -0.0988
     31 C24        -5.7070    0.2669  -16.4018 C.ar      1 <0>        -0.0999
     32 C25        -5.0726    0.8073  -15.2935 C.ar      1 <0>         0.0916
     33 N8         -5.5123    1.5856  -14.2253 N.am      1 <0>        -0.6395
     34 C26        -4.4628    1.8296  -13.4180 C.2       1 <0>         0.6857
     35 O1         -4.5058    2.4787  -12.3896 O.2       1 <0>        -0.5578
     36 C27        -0.4252   -1.7227   -5.9614 C.ar      1 <0>        -0.0554
     37 C28        -1.2642   -1.2475   -6.9681 C.ar      1 <0>        -0.0964
     38 C29        -1.6188   -2.0744   -8.0145 C.ar      1 <0>        -0.1207
     39 C30        -1.1433   -3.3724   -8.0657 C.ar      1 <0>        -0.1066
     40 C31        -0.3104   -3.8493   -7.0695 C.ar      1 <0>        -0.1113
     41 C32         0.0552   -3.0299   -6.0210 C.ar      1 <0>        -0.1037
     42 H1         -1.0628   -3.5029   -1.7596 H         1 <0>         0.0978
     43 H2          0.6217   -3.2282   -2.2648 H         1 <0>         0.0999
     44 H3          0.2759   -4.1645   -0.7910 H         1 <0>         0.1147
     45 H4         -0.5400   -2.2646   -3.2958 H         1 <0>         0.1510
     46 H5          0.9797    1.5440   -2.0293 H         1 <0>         0.1836
     47 H6          1.1240   -0.9937   -7.2596 H         1 <0>         0.1427
     48 H7          1.3500   -0.1845   -9.5715 H         1 <0>         0.1348
     49 H8          0.3251    3.7600   -8.3101 H         1 <0>         0.1369
     50 H9          0.0815    2.9674   -5.9943 H         1 <0>         0.1440
     51 H10         1.3076    3.3681  -10.4903 H         1 <0>         0.1404
     52 H11         1.7357    1.7224  -11.0165 H         1 <0>         0.1380
     53 H12         0.0608    0.2696  -11.9028 H         1 <0>         0.1326
     54 H13        -0.6954    0.3491  -10.2940 H         1 <0>         0.1386
     55 H14        -2.3287   -0.3816  -12.0116 H         1 <0>         0.1166
     56 H15        -2.7898    1.1934  -11.3203 H         1 <0>         0.1070
     57 H16        -1.3218    0.7405  -13.9597 H         1 <0>         0.1149
     58 H17        -1.4759    3.1859  -14.2132 H         1 <0>         0.1183
     59 H18        -2.2821    3.3170  -12.6308 H         1 <0>         0.1077
     60 H19         0.1372    3.8314  -12.4430 H         1 <0>         0.1390
     61 H20         0.5295    2.2302  -13.1128 H         1 <0>         0.1335
     62 H21        -1.9318   -0.3242  -15.8755 H         1 <0>         0.1288
     63 H22        -3.0713   -1.2781  -17.8358 H         1 <0>         0.1387
     64 H23        -5.4786   -0.9021  -18.1738 H         1 <0>         0.1400
     65 H24        -6.7636    0.4305  -16.5539 H         1 <0>         0.1367
     66 H25        -1.6364   -0.2344   -6.9289 H         1 <0>         0.1218
     67 H26        -2.2691   -1.7075   -8.7949 H         1 <0>         0.1233
     68 H27        -1.4236   -4.0160   -8.8863 H         1 <0>         0.1272
     69 H28         0.0576   -4.8637   -7.1144 H         1 <0>         0.1312
     70 H29         0.7091   -3.4018   -5.2461 H         1 <0>         0.1271
     71 H30        -1.0069    2.7018  -10.6583 H         1 <0>         0.4264
     72 H31        -6.4207    1.8955  -14.0848 H         1 <0>         0.4398
@<TRIPOS>BOND
     1    1    2 1
     2    1   42 1
     3    1   43 1
     4    1   44 1
     5    2    6 1
     6    2    3 1
     7    3    4 2
     8    3    7 1
     9    4    5 1
    10    5    6 2
    11    7   12 ar
    12    7    8 ar
    13    8    9 ar
    14    8   45 1
    15    9   10 ar
    16    9   36 1
    17   10   11 ar
    18   10   13 1
    19   11   12 ar
    20   12   46 1
    21   13   18 ar
    22   13   14 ar
    23   14   15 ar
    24   14   47 1
    25   15   16 ar
    26   15   48 1
    27   16   17 ar
    28   16   19 1
    29   17   18 ar
    30   17   49 1
    31   18   50 1
    32   19   20 1
    33   19   51 1
    34   19   52 1
    35   20   25 1
    36   20   21 1
    37   20   71 1
    38   21   22 1
    39   21   53 1
    40   21   54 1
    41   22   23 1
    42   22   55 1
    43   22   56 1
    44   23   24 1
    45   23   26 1
    46   23   57 1
    47   24   25 1
    48   24   58 1
    49   24   59 1
    50   25   60 1
    51   25   61 1
    52   26   34 am
    53   26   27 1
    54   27   32 ar
    55   27   28 ar
    56   28   29 ar
    57   28   62 1
    58   29   30 ar
    59   29   63 1
    60   30   31 ar
    61   30   64 1
    62   31   32 ar
    63   31   65 1
    64   32   33 1
    65   33   34 am
    66   33   72 1
    67   34   35 2
    68   36   41 ar
    69   36   37 ar
    70   37   38 ar
    71   37   66 1
    72   38   39 ar
    73   38   67 1
    74   39   40 ar
    75   39   68 1
    76   40   41 ar
    77   40   69 1
    78   41   70 1
@<TRIPOS>MOLECULE
CHEMBL494060
   72    75     0     0     0
SMALL
USER_CHARGES

@<TRIPOS>ATOM
      1 C1         -0.0187    1.5258    0.0104 C.3       1 <0>        -0.1652
      2 C2          0.0021   -0.0041    0.0020 C.3       1 <0>         0.0987
      3 N1          0.6878   -0.4765   -1.2033 N.pl3     1 <0>        -0.4450
      4 C3          0.1084   -0.7452   -2.4220 C.ar      1 <0>         0.0729
      5 C4         -1.1885   -0.6848   -2.9333 C.ar      1 <0>         0.0984
      6 C5         -1.4068   -1.0423   -4.2530 C.ar      1 <0>         0.0255
      7 N2         -0.4156   -1.4373   -5.0310 N.ar      1 <0>        -0.4279
      8 C6          0.8360   -1.5144   -4.6003 C.ar      1 <0>         0.2931
      9 C7          1.1491   -1.1685   -3.2692 C.ar      1 <0>         0.0633
     10 N3          2.2847   -1.1401   -2.5504 N.2       1 <0>        -0.4382
     11 C8          2.0279   -0.7287   -1.3319 C.2       1 <0>         0.3431
     12 C9          3.0324   -0.5655   -0.2583 C.2       1 <0>         0.1305
     13 C10         4.4724   -0.8253   -0.3802 C.2       1 <0>         0.3642
     14 N4          5.0335   -0.5707    0.7697 N.2       1 <0>        -0.3423
     15 O1          4.0212   -0.1472    1.6654 O.3       1 <0>         0.0502
     16 N5          2.7917   -0.1594    0.9619 N.2       1 <0>        -0.2475
     17 N6          5.1251   -1.2670   -1.5235 N.pl3     1 <0>        -0.8007
     18 C11         1.8718   -1.9500   -5.4881 C.1       1 <0>        -0.1221
     19 C12         2.7209   -2.3071   -6.2159 C.1       1 <0>        -0.1235
     20 C13         3.7856   -2.7549   -7.1284 C.3       1 <0>         0.2403
     21 C14         5.1250   -2.7540   -6.3888 C.3       1 <0>        -0.1760
     22 C15         3.4749   -4.1704   -7.6190 C.3       1 <0>        -0.1392
     23 O2          3.8585   -1.8683   -8.2468 O.3       1 <0>        -0.5437
     24 O3         -2.2219   -0.2814   -2.1476 O.3       1 <0>        -0.3074
     25 C16        -3.5183   -0.2475   -2.7478 C.3       1 <0>         0.0574
     26 C17        -4.5450    0.2275   -1.7176 C.3       1 <0>        -0.1516
     27 C18        -5.9330    0.2637   -2.3602 C.3       1 <0>        -0.0056
     28 N7         -6.9188    0.7198   -1.3711 N.4       1 <0>        -0.5087
     29 C19        -8.2515    0.7546   -1.9881 C.3       1 <0>        -0.0076
     30 C20        -9.2781    1.2296   -0.9579 C.3       1 <0>        -0.0937
     31 C21       -10.6453    1.2654   -1.5908 C.ar      1 <0>        -0.1535
     32 C22       -11.0832    2.4143   -2.2233 C.ar      1 <0>        -0.0669
     33 C23       -12.3362    2.4497   -2.8039 C.ar      1 <0>        -0.1495
     34 C24       -13.1552    1.3311   -2.7523 C.ar      1 <0>         0.1483
     35 C25       -12.7133    0.1794   -2.1175 C.ar      1 <0>        -0.2071
     36 C26       -11.4574    0.1474   -1.5430 C.ar      1 <0>        -0.0656
     37 O4        -14.3885    1.3636   -3.3223 O.3       1 <0>        -0.3118
     38 C27       -15.1771    0.1754   -3.2307 C.3       1 <0>         0.0233
     39 H1          1.0039    1.9031    0.0027 H         1 <0>         0.0654
     40 H2         -0.5459    1.8868   -0.8726 H         1 <0>         0.0629
     41 H3         -0.5289    1.8773    0.9072 H         1 <0>         0.0860
     42 H4          0.5293   -0.3651    0.8851 H         1 <0>         0.1097
     43 H5         -1.0205   -0.3814    0.0098 H         1 <0>         0.1029
     44 H6         -2.4085   -0.9976   -4.6543 H         1 <0>         0.1724
     45 H7          4.6220   -1.4309   -2.3365 H         1 <0>         0.4301
     46 H8          6.0842   -1.4116   -1.5092 H         1 <0>         0.4213
     47 H9          5.0694   -3.4303   -5.5357 H         1 <0>         0.0726
     48 H10         5.9134   -3.0856   -7.0645 H         1 <0>         0.0803
     49 H11         5.3464   -1.7456   -6.0392 H         1 <0>         0.0650
     50 H12         2.5207   -4.1710   -8.1459 H         1 <0>         0.0690
     51 H13         4.2633   -4.5020   -8.2948 H         1 <0>         0.0784
     52 H14         3.4193   -4.8466   -6.7660 H         1 <0>         0.0766
     53 H15         4.0529   -0.9513   -8.0097 H         1 <0>         0.3824
     54 H16        -3.5089    0.4388   -3.5945 H         1 <0>         0.0805
     55 H17        -3.7852   -1.2465   -3.0928 H         1 <0>         0.0803
     56 H18        -4.5544   -0.4589   -0.8709 H         1 <0>         0.1007
     57 H19        -4.2781    1.2264   -1.3726 H         1 <0>         0.1011
     58 H20        -5.9236    0.9501   -3.2069 H         1 <0>         0.1380
     59 H21        -6.1999   -0.7352   -2.7052 H         1 <0>         0.1377
     60 H22        -6.9275    0.0844   -0.5873 H         1 <0>         0.4299
     61 H23        -8.2421    1.4410   -2.8348 H         1 <0>         0.1349
     62 H24        -8.5184   -0.2443   -2.3331 H         1 <0>         0.1340
     63 H25        -9.2876    0.5433   -0.1112 H         1 <0>         0.0942
     64 H26        -9.0112    2.2286   -0.6129 H         1 <0>         0.0951
     65 H27       -10.4453    3.2848   -2.2632 H         1 <0>         0.1315
     66 H28       -12.6781    3.3476   -3.2972 H         1 <0>         0.1382
     67 H29       -13.3491   -0.6927   -2.0760 H         1 <0>         0.1352
     68 H30       -11.1112   -0.7504   -1.0525 H         1 <0>         0.1269
     69 H31       -15.3455   -0.0689   -2.1819 H         1 <0>         0.0602
     70 H32       -16.1353    0.3363   -3.7247 H         1 <0>         0.1084
     71 H33       -14.6519   -0.6474   -3.7157 H         1 <0>         0.0594
     72 H34        -6.6717    1.6445   -1.0517 H         1 <0>         0.4301
@<TRIPOS>BOND
     1    1    2 1
     2    1   39 1
     3    1   40 1
     4    1   41 1
     5    2    3 1
     6    2   42 1
     7    2   43 1
     8    3   11 1
     9    3    4 1
    10    4    9 ar
    11    4    5 ar
    12    5    6 ar
    13    5   24 1
    14    6    7 ar
    15    6   44 1
    16    7    8 ar
    17    8    9 ar
    18    8   18 1
    19    9   10 1
    20   10   11 2
    21   11   12 1
    22   12   16 2
    23   12   13 1
    24   13   14 2
    25   13   17 1
    26   14   15 1
    27   15   16 1
    28   17   45 1
    29   17   46 1
    30   18   19 3
    31   19   20 1
    32   20   21 1
    33   20   22 1
    34   20   23 1
    35   21   47 1
    36   21   48 1
    37   21   49 1
    38   22   50 1
    39   22   51 1
    40   22   52 1
    41   23   53 1
    42   24   25 1
    43   25   26 1
    44   25   54 1
    45   25   55 1
    46   26   27 1
    47   26   56 1
    48   26   57 1
    49   27   28 1
    50   27   58 1
    51   27   59 1
    52   28   29 1
    53   28   60 1
    54   28   72 1
    55   29   30 1
    56   29   61 1
    57   29   62 1
    58   30   31 1
    59   30   63 1
    60   30   64 1
    61   31   36 ar
    62   31   32 ar
    63   32   33 ar
    64   32   65 1
    65   33   34 ar
    66   33   66 1
    67   34   35 ar
    68   34   37 1
    69   35   36 ar
    70   35   67 1
    71   36   68 1
    72   37   38 1
    73   38   69 1
    74   38   70 1
    75   38   71 1
@<TRIPOS>MOLECULE
CHEMBL227605
   42    45     0     0     0
SMALL
USER_CHARGES

@<TRIPOS>ATOM
      1 C1         -0.0167    1.3781    0.0096 C.ar      1 <0>        -0.1026
      2 C2          1.1709    2.0855    0.0021 C.ar      1 <0>        -0.1053
      3 C3          2.3773    1.4107   -0.0130 C.ar      1 <0>        -0.1043
      4 C4          2.3960    0.0285   -0.0201 C.ar      1 <0>        -0.1302
      5 C5          1.2084   -0.6789   -0.0117 C.ar      1 <0>        -0.1413
      6 C6          0.0021   -0.0041    0.0020 C.ar      1 <0>        -0.1069
      7 C7          3.7112   -0.7071   -0.0376 C.3       1 <0>        -0.0938
      8 C8          4.1714   -0.9633    1.3989 C.3       1 <0>         0.0894
      9 C9          5.5425   -1.5884    1.3832 C.ar      1 <0>        -0.1346
     10 C10         5.6802   -2.9410    1.1277 C.ar      1 <0>        -0.1171
     11 C11         6.9331   -3.5189    1.1120 C.ar      1 <0>        -0.0596
     12 C12         8.0617   -2.7369    1.3544 C.ar      1 <0>        -0.0159
     13 C13         7.9167   -1.3742    1.6113 C.ar      1 <0>        -0.0965
     14 C14         6.6590   -0.8063    1.6188 C.ar      1 <0>        -0.0806
     15 C15         9.4101   -3.3517    1.3394 C.ar      1 <0>         0.2319
     16 C16        10.5155   -2.6393    0.8674 C.ar      1 <0>        -0.0578
     17 C17        11.7750   -3.2681    0.8746 C.ar      1 <0>         0.3033
     18 N1         12.6561   -2.3798    0.3771 N.2       1 <0>        -0.4814
     19 H1         10.0462   -0.6958    0.2178 H         1 <0>         0.4291
     20 C18        12.0399   -1.2722    0.0709 C.2       1 <0>         0.3175
     21 N2         10.7210   -1.3793    0.3531 N.pl3     1 <0>        -0.5830
     22 N3         11.8631   -4.5191    1.3313 N.ar      1 <0>        -0.4678
     23 C19        10.7941   -5.1506    1.7657 C.ar      1 <0>         0.3067
     24 N4          9.5976   -4.5950    1.7811 N.ar      1 <0>        -0.4964
     25 N5          3.2263   -1.8723    2.0611 N.4       1 <0>        -0.6375
     26 H2         -0.9591    1.9053    0.0259 H         1 <0>         0.1327
     27 H3          1.1563    3.1654    0.0076 H         1 <0>         0.1329
     28 H4          3.3051    1.9634   -0.0196 H         1 <0>         0.1295
     29 H5          1.2231   -1.7588   -0.0176 H         1 <0>         0.1221
     30 H6         -0.9258   -0.5567    0.0082 H         1 <0>         0.1323
     31 H7          3.5884   -1.6586   -0.5549 H         1 <0>         0.0999
     32 H8          4.4573   -0.1052   -0.5563 H         1 <0>         0.1217
     33 H9          4.2087   -0.0191    1.9423 H         1 <0>         0.1519
     34 H10         4.8052   -3.5458    0.9405 H         1 <0>         0.1293
     35 H11         7.0394   -4.5751    0.9128 H         1 <0>         0.1480
     36 H12         8.7872   -0.7634    1.7997 H         1 <0>         0.1325
     37 H13         6.5457    0.2500    1.8134 H         1 <0>         0.1428
     38 H14        12.5138   -0.3962   -0.3468 H         1 <0>         0.2380
     39 H15        10.9009   -6.1622    2.1285 H         1 <0>         0.2142
     40 H16         2.3083   -1.4538    2.0716 H         1 <0>         0.4369
     41 H17         3.1918   -2.7463    1.5581 H         1 <0>         0.4306
     42 H18         3.5298   -2.0413    3.0084 H         1 <0>         0.4395
@<TRIPOS>BOND
     1    1    6 ar
     2    1    2 ar
     3    1   26 1
     4    2    3 ar
     5    2   27 1
     6    3    4 ar
     7    3   28 1
     8    4    5 ar
     9    4    7 1
    10    5    6 ar
    11    5   29 1
    12    6   30 1
    13    7    8 1
    14    7   31 1
    15    7   32 1
    16    8    9 1
    17    8   25 1
    18    8   33 1
    19    9   14 ar
    20    9   10 ar
    21   10   11 ar
    22   10   34 1
    23   11   12 ar
    24   11   35 1
    25   12   13 ar
    26   12   15 1
    27   13   14 ar
    28   13   36 1
    29   14   37 1
    30   15   24 ar
    31   15   16 ar
    32   16   17 ar
    33   16   21 1
    34   17   18 1
    35   17   22 ar
    36   18   20 2
    37   19   21 1
    38   20   38 1
    39   20   21 1
    40   22   23 ar
    41   23   39 1
    42   23   24 ar
    43   25   40 1
    44   25   41 1
    45   25   42 1
@<TRIPOS>MOLECULE
CHEMBL227605
   42    45     0     0     0
SMALL
USER_CHARGES

@<TRIPOS>ATOM
      1 C1         -0.0167    1.3781    0.0096 C.ar      1 <0>        -0.1040
      2 C2          1.1709    2.0855    0.0021 C.ar      1 <0>        -0.1056
      3 C3          2.3773    1.4107   -0.0130 C.ar      1 <0>        -0.1042
      4 C4          2.3960    0.0285   -0.0201 C.ar      1 <0>        -0.1283
      5 C5          1.2084   -0.6789   -0.0117 C.ar      1 <0>        -0.1416
      6 C6          0.0021   -0.0041    0.0020 C.ar      1 <0>        -0.1077
      7 C7          3.7112   -0.7071   -0.0376 C.3       1 <0>        -0.0943
      8 C8          4.1714   -0.9633    1.3989 C.3       1 <0>         0.0901
      9 C9          5.5425   -1.5884    1.3832 C.ar      1 <0>        -0.1334
     10 C10         5.6801   -2.9410    1.1276 C.ar      1 <0>        -0.1277
     11 C11         6.9329   -3.5190    1.1115 C.ar      1 <0>        -0.0615
     12 C12         8.0619   -2.7367    1.3535 C.ar      1 <0>        -0.0179
     13 C13         7.9167   -1.3737    1.6106 C.ar      1 <0>        -0.0595
     14 C14         6.6590   -0.8061    1.6188 C.ar      1 <0>        -0.0893
     15 C15         9.4095   -3.3511    1.3381 C.ar      1 <0>         0.2636
     16 C16        10.5223   -2.6346    0.8627 C.ar      1 <0>        -0.0361
     17 C17        11.7774   -3.2733    0.8741 C.ar      1 <0>         0.2787
     18 N1         12.6688   -2.3619    0.3656 N.pl3     1 <0>        -0.5788
     19 H1         13.6213   -2.4979    0.2422 H         1 <0>         0.4389
     20 C18        11.9703   -1.2312    0.0660 C.2       1 <0>         0.2949
     21 N2         10.7118   -1.3937    0.3584 N.2       1 <0>        -0.4774
     22 N3         11.8637   -4.5169    1.3281 N.ar      1 <0>        -0.5057
     23 C19        10.7935   -5.1496    1.7632 C.ar      1 <0>         0.3220
     24 N4          9.5977   -4.5929    1.7790 N.ar      1 <0>        -0.5095
     25 N5          3.2263   -1.8723    2.0611 N.4       1 <0>        -0.6373
     26 H2         -0.9591    1.9053    0.0259 H         1 <0>         0.1319
     27 H3          1.1563    3.1654    0.0076 H         1 <0>         0.1324
     28 H4          3.3051    1.9634   -0.0196 H         1 <0>         0.1303
     29 H5          1.2231   -1.7588   -0.0176 H         1 <0>         0.1218
     30 H6         -0.9258   -0.5567    0.0082 H         1 <0>         0.1315
     31 H7          3.5884   -1.6586   -0.5549 H         1 <0>         0.0994
     32 H8          4.4573   -0.1052   -0.5563 H         1 <0>         0.1227
     33 H9          4.2087   -0.0191    1.9423 H         1 <0>         0.1510
     34 H10         4.8051   -3.5459    0.9407 H         1 <0>         0.1256
     35 H11         7.0390   -4.5752    0.9122 H         1 <0>         0.1436
     36 H12         8.7872   -0.7628    1.7987 H         1 <0>         0.1462
     37 H13         6.5456    0.2501    1.8137 H         1 <0>         0.1402
     38 H14        12.3977   -0.3318   -0.3520 H         1 <0>         0.2363
     39 H15        10.8999   -6.1614    2.1255 H         1 <0>         0.2139
     40 H16         2.3083   -1.4538    2.0716 H         1 <0>         0.4355
     41 H17         3.1918   -2.7463    1.5581 H         1 <0>         0.4302
     42 H18         3.5298   -2.0413    3.0084 H         1 <0>         0.4389
@<TRIPOS>BOND
     1    1    6 ar
     2    1    2 ar
     3    1   26 1
     4    2    3 ar
     5    2   27 1
     6    3    4 ar
     7    3   28 1
     8    4    5 ar
     9    4    7 1
    10    5    6 ar
    11    5   29 1
    12    6   30 1
    13    7    8 1
    14    7   31 1
    15    7   32 1
    16    8    9 1
    17    8   25 1
    18    8   33 1
    19    9   14 ar
    20    9   10 ar
    21   10   11 ar
    22   10   34 1
    23   11   12 ar
    24   11   35 1
    25   12   13 ar
    26   12   15 1
    27   13   14 ar
    28   13   36 1
    29   14   37 1
    30   15   24 ar
    31   15   16 ar
    32   16   21 1
    33   16   17 ar
    34   17   18 1
    35   17   22 ar
    36   18   19 1
    37   18   20 1
    38   20   21 2
    39   20   38 1
    40   22   23 ar
    41   23   24 ar
    42   23   39 1
    43   25   40 1
    44   25   41 1
    45   25   42 1
@<TRIPOS>MOLECULE
CHEMBL227605
   42    45     0     0     0
SMALL
USER_CHARGES

@<TRIPOS>ATOM
      1 C1         -0.0167    1.3781    0.0096 C.ar      1 <0>        -0.1028
      2 C2          1.1709    2.0855    0.0021 C.ar      1 <0>        -0.1072
      3 C3          2.3773    1.4107   -0.0130 C.ar      1 <0>        -0.1414
      4 C4          2.3960    0.0285   -0.0201 C.ar      1 <0>        -0.1298
      5 C5          1.2084   -0.6789   -0.0117 C.ar      1 <0>        -0.1043
      6 C6          0.0021   -0.0041    0.0020 C.ar      1 <0>        -0.1052
      7 C7          3.7112   -0.7071   -0.0376 C.3       1 <0>        -0.0944
      8 C8          4.1714   -0.9633    1.3989 C.3       1 <0>         0.0897
      9 C9          5.4216   -1.8045    1.3834 C.ar      1 <0>        -0.1341
     10 C10         6.6474   -1.2124    1.1374 C.ar      1 <0>        -0.1175
     11 C11         7.7957   -1.9776    1.1219 C.ar      1 <0>        -0.0594
     12 C12         7.7186   -3.3501    1.3549 C.ar      1 <0>        -0.0162
     13 C13         6.4804   -3.9412    1.6023 C.ar      1 <0>        -0.0961
     14 C14         5.3396   -3.1649    1.6209 C.ar      1 <0>        -0.0809
     15 C15         8.9482   -4.1775    1.3392 C.ar      1 <0>         0.2319
     16 C16         9.0852   -5.2708    2.1983 C.ar      1 <0>        -0.0581
     17 C17        10.2725   -6.0252    2.1440 C.ar      1 <0>         0.3031
     18 N1         10.1523   -7.0061    3.0587 N.2       1 <0>        -0.4812
     19 H1          7.4193   -5.5726    3.4446 H         1 <0>         0.4287
     20 C18         8.9988   -6.9099    3.6590 C.2       1 <0>         0.3171
     21 N2          8.3035   -5.8587    3.1667 N.pl3     1 <0>        -0.5834
     22 N3         11.2197   -5.6662    1.2750 N.ar      1 <0>        -0.4678
     23 C19        11.0461   -4.6283    0.4858 C.ar      1 <0>         0.3072
     24 N4          9.9466   -3.8994    0.5015 N.ar      1 <0>        -0.4956
     25 N5          4.4519    0.3186    2.0592 N.4       1 <0>        -0.6376
     26 H2         -0.9591    1.9053    0.0259 H         1 <0>         0.1326
     27 H3          1.1563    3.1654    0.0076 H         1 <0>         0.1322
     28 H4          3.3051    1.9634   -0.0196 H         1 <0>         0.1221
     29 H5          1.2231   -1.7588   -0.0176 H         1 <0>         0.1297
     30 H6         -0.9258   -0.5567    0.0082 H         1 <0>         0.1328
     31 H7          3.5884   -1.6586   -0.5549 H         1 <0>         0.1224
     32 H8          4.4573   -0.1052   -0.5563 H         1 <0>         0.1005
     33 H9          3.3868   -1.4885    1.9436 H         1 <0>         0.1518
     34 H10         6.7058   -0.1492    0.9567 H         1 <0>         0.1292
     35 H11         8.7521   -1.5143    0.9294 H         1 <0>         0.1480
     36 H12         6.4146   -5.0039    1.7835 H         1 <0>         0.1325
     37 H13         4.3805   -3.6210    1.8167 H         1 <0>         0.1428
     38 H14         8.6489   -7.5733    4.4360 H         1 <0>         0.2379
     39 H15        11.8329   -4.3653   -0.2058 H         1 <0>         0.2144
     40 H16         4.7554    0.1497    3.0065 H         1 <0>         0.4385
     41 H17         5.1782    0.8048    1.5550 H         1 <0>         0.4308
     42 H18         3.6148    0.8819    2.0696 H         1 <0>         0.4370
@<TRIPOS>BOND
     1    1    6 ar
     2    1    2 ar
     3    1   26 1
     4    2    3 ar
     5    2   27 1
     6    3    4 ar
     7    3   28 1
     8    4    5 ar
     9    4    7 1
    10    5    6 ar
    11    5   29 1
    12    6   30 1
    13    7    8 1
    14    7   31 1
    15    7   32 1
    16    8    9 1
    17    8   25 1
    18    8   33 1
    19    9   14 ar
    20    9   10 ar
    21   10   11 ar
    22   10   34 1
    23   11   12 ar
    24   11   35 1
    25   12   13 ar
    26   12   15 1
    27   13   14 ar
    28   13   36 1
    29   14   37 1
    30   15   24 ar
    31   15   16 ar
    32   16   17 ar
    33   16   21 1
    34   17   18 1
    35   17   22 ar
    36   18   20 2
    37   19   21 1
    38   20   38 1
    39   20   21 1
    40   22   23 ar
    41   23   39 1
    42   23   24 ar
    43   25   40 1
    44   25   41 1
    45   25   42 1
@<TRIPOS>MOLECULE
CHEMBL227605
   42    45     0     0     0
SMALL
USER_CHARGES

@<TRIPOS>ATOM
      1 C1         -0.0167    1.3781    0.0096 C.ar      1 <0>        -0.1040
      2 C2          1.1709    2.0855    0.0021 C.ar      1 <0>        -0.1078
      3 C3          2.3773    1.4107   -0.0130 C.ar      1 <0>        -0.1416
      4 C4          2.3960    0.0285   -0.0201 C.ar      1 <0>        -0.1282
      5 C5          1.2084   -0.6789   -0.0117 C.ar      1 <0>        -0.1042
      6 C6          0.0021   -0.0041    0.0020 C.ar      1 <0>        -0.1055
      7 C7          3.7112   -0.7071   -0.0376 C.3       1 <0>        -0.0943
      8 C8          4.1714   -0.9633    1.3989 C.3       1 <0>         0.0901
      9 C9          5.4216   -1.8045    1.3834 C.ar      1 <0>        -0.1330
     10 C10         6.6474   -1.2123    1.1374 C.ar      1 <0>        -0.1281
     11 C11         7.7958   -1.9772    1.1224 C.ar      1 <0>        -0.0613
     12 C12         7.7189   -3.3500    1.3558 C.ar      1 <0>        -0.0182
     13 C13         6.4802   -3.9413    1.6032 C.ar      1 <0>        -0.0591
     14 C14         5.3395   -3.1650    1.6209 C.ar      1 <0>        -0.0895
     15 C15         8.9477   -4.1769    1.3406 C.ar      1 <0>         0.2637
     16 C16         9.0862   -5.2772    2.2054 C.ar      1 <0>        -0.0366
     17 C17        10.2781   -6.0247    2.1430 C.ar      1 <0>         0.2788
     18 N1         10.1475   -7.0212    3.0777 N.pl3     1 <0>        -0.5788
     19 H1         10.8024   -7.7074    3.2805 H         1 <0>         0.4389
     20 C18         8.9292   -6.8695    3.6684 C.2       1 <0>         0.2945
     21 N2          8.3088   -5.8462    3.1551 N.2       1 <0>        -0.4778
     22 N3         11.2190   -5.6666    1.2789 N.ar      1 <0>        -0.5059
     23 C19        11.0456   -4.6274    0.4884 C.ar      1 <0>         0.3226
     24 N4          9.9455   -3.8998    0.5042 N.ar      1 <0>        -0.5088
     25 N5          4.4519    0.3186    2.0592 N.4       1 <0>        -0.6374
     26 H2         -0.9591    1.9053    0.0259 H         1 <0>         0.1319
     27 H3          1.1563    3.1654    0.0076 H         1 <0>         0.1315
     28 H4          3.3051    1.9634   -0.0196 H         1 <0>         0.1219
     29 H5          1.2231   -1.7588   -0.0176 H         1 <0>         0.1301
     30 H6         -0.9258   -0.5567    0.0082 H         1 <0>         0.1324
     31 H7          3.5884   -1.6586   -0.5549 H         1 <0>         0.1224
     32 H8          4.4573   -0.1052   -0.5563 H         1 <0>         0.0999
     33 H9          3.3868   -1.4885    1.9436 H         1 <0>         0.1511
     34 H10         6.7057   -0.1491    0.9564 H         1 <0>         0.1255
     35 H11         8.7521   -1.5138    0.9299 H         1 <0>         0.1436
     36 H12         6.4144   -5.0039    1.7847 H         1 <0>         0.1462
     37 H13         4.3803   -3.6210    1.8164 H         1 <0>         0.1402
     38 H14         8.5354   -7.5054    4.4475 H         1 <0>         0.2361
     39 H15        11.8324   -4.3639   -0.2029 H         1 <0>         0.2141
     40 H16         4.7554    0.1497    3.0065 H         1 <0>         0.4387
     41 H17         5.1782    0.8048    1.5550 H         1 <0>         0.4302
     42 H18         3.6148    0.8819    2.0696 H         1 <0>         0.4355
@<TRIPOS>BOND
     1    1    6 ar
     2    1    2 ar
     3    1   26 1
     4    2    3 ar
     5    2   27 1
     6    3    4 ar
     7    3   28 1
     8    4    5 ar
     9    4    7 1
    10    5    6 ar
    11    5   29 1
    12    6   30 1
    13    7    8 1
    14    7   31 1
    15    7   32 1
    16    8    9 1
    17    8   25 1
    18    8   33 1
    19    9   14 ar
    20    9   10 ar
    21   10   11 ar
    22   10   34 1
    23   11   12 ar
    24   11   35 1
    25   12   13 ar
    26   12   15 1
    27   13   14 ar
    28   13   36 1
    29   14   37 1
    30   15   24 ar
    31   15   16 ar
    32   16   21 1
    33   16   17 ar
    34   17   18 1
    35   17   22 ar
    36   18   19 1
    37   18   20 1
    38   20   21 2
    39   20   38 1
    40   22   23 ar
    41   23   24 ar
    42   23   39 1
    43   25   40 1
    44   25   41 1
    45   25   42 1
@<TRIPOS>MOLECULE
CHEMBL264965
   33    35     0     0     0
SMALL
USER_CHARGES

@<TRIPOS>ATOM
      1 C1         -0.0178    1.4592    0.0101 C.2       1 <0>        -0.1946
      2 C2          1.2614    1.8658    0.0000 C.2       1 <0>         0.0710
      3 N1          2.0948    0.7782   -0.0138 N.pl3     1 <0>        -0.5808
      4 H1          3.0638    0.8199   -0.0225 H         1 <0>         0.4246
      5 C3          1.3559   -0.3801   -0.0129 C.ar      1 <0>         0.2938
      6 C4          0.0021   -0.0041    0.0020 C.ar      1 <0>        -0.1580
      7 C5         -0.9892   -0.9979    0.0065 C.ar      1 <0>         0.2443
      8 C6         -0.5785   -2.3273   -0.0041 C.ar      1 <0>        -0.2084
      9 C7          0.7735   -2.6179   -0.0186 C.ar      1 <0>         0.1458
     10 N2          1.6851   -1.6670   -0.0234 N.ar      1 <0>        -0.4950
     11 N3         -2.3387   -0.6645    0.0217 N.pl3     1 <0>        -0.6707
     12 C8         -3.0794   -0.4842   -1.2343 C.3       1 <0>         0.1485
     13 C9         -4.3219   -1.3798   -1.2070 C.3       1 <0>        -0.1602
     14 C10        -5.1369   -1.0764    0.0524 C.3       1 <0>         0.0296
     15 C11        -4.2943   -1.3813    1.2930 C.3       1 <0>        -0.1600
     16 C12        -3.0529   -0.4917    1.2940 C.3       1 <0>         0.1482
     17 N4         -6.3464   -1.9100    0.0653 N.4       1 <0>        -0.6374
     18 H2         -0.8937    2.0909    0.0258 H         1 <0>         0.1473
     19 H3          1.5853    2.8961    0.0019 H         1 <0>         0.1815
     20 H4         -1.3079   -3.1238   -0.0008 H         1 <0>         0.1327
     21 H5          1.0899   -3.6505   -0.0265 H         1 <0>         0.1640
     22 H6         -3.3824    0.5582   -1.3335 H         1 <0>         0.0668
     23 H7         -2.4456   -0.7642   -2.0757 H         1 <0>         0.0909
     24 H8         -4.9306   -1.1846   -2.0899 H         1 <0>         0.0955
     25 H9         -4.0162   -2.4260   -1.1992 H         1 <0>         0.0908
     26 H10        -5.4213   -0.0242    0.0562 H         1 <0>         0.1419
     27 H11        -4.8832   -1.1873    2.1895 H         1 <0>         0.0958
     28 H12        -3.9888   -2.4275    1.2772 H         1 <0>         0.0907
     29 H13        -2.4016   -0.7767    2.1203 H         1 <0>         0.0908
     30 H14        -3.3537    0.5500    1.4057 H         1 <0>         0.0662
     31 H15        -6.0835   -2.8842    0.0612 H         1 <0>         0.4329
     32 H16        -6.8838   -1.7101    0.8955 H         1 <0>         0.4357
     33 H17        -6.9026   -1.7083   -0.7521 H         1 <0>         0.4358
@<TRIPOS>BOND
     1    1    6 1
     2    1    2 2
     3    1   18 1
     4    2    3 1
     5    2   19 1
     6    3    4 1
     7    3    5 1
     8    5   10 ar
     9    5    6 ar
    10    6    7 ar
    11    7    8 ar
    12    7   11 1
    13    8    9 ar
    14    8   20 1
    15    9   10 ar
    16    9   21 1
    17   11   16 1
    18   11   12 1
    19   12   13 1
    20   12   22 1
    21   12   23 1
    22   13   14 1
    23   13   24 1
    24   13   25 1
    25   14   15 1
    26   14   17 1
    27   14   26 1
    28   15   16 1
    29   15   27 1
    30   15   28 1
    31   16   29 1
    32   16   30 1
    33   17   31 1
    34   17   32 1
    35   17   33 1
@<TRIPOS>MOLECULE
CHEMBL265451
   31    33     0     0     0
SMALL
USER_CHARGES

@<TRIPOS>ATOM
      1 C1          2.2837    2.8650   -2.5710 C.2       1 <0>         0.1051
      2 C2          2.3966    2.4992   -1.2122 C.ar      1 <0>        -0.2780
      3 C3          3.1740    1.3255   -1.1642 C.ar      1 <0>         0.3503
      4 N1          3.5000    1.0226   -2.4527 N.pl3     1 <0>        -0.4742
      5 H1          4.0323    0.2648   -2.7412 H         1 <0>         0.4537
      6 N2          2.9335    1.9934   -3.2884 N.2       1 <0>        -0.2236
      7 N3          3.4288    0.7720    0.0202 N.ar      1 <0>        -0.5304
      8 C4          2.9638    1.3100    1.1264 C.ar      1 <0>         0.3608
      9 N4          2.2305    2.4091    1.1309 N.ar      1 <0>        -0.5590
     10 C5          1.9222    3.0352    0.0004 C.ar      1 <0>         0.5036
     11 N5          1.1552    4.1836    0.0143 N.pl3     1 <0>        -0.6628
     12 C6         -0.3093    4.1069   -0.0763 C.3       1 <0>         0.1510
     13 C7         -0.9171    4.8794    1.0987 C.3       1 <0>        -0.1613
     14 C8         -0.3618    6.3055    1.1082 C.3       1 <0>         0.0302
     15 C9          1.1568    6.2622    1.2926 C.3       1 <0>        -0.1613
     16 C10         1.7878    5.5050    0.1259 C.3       1 <0>         0.1507
     17 N6         -0.9677    7.0592    2.2140 N.4       1 <0>        -0.6370
     18 H2          1.7455    3.7204   -2.9518 H         1 <0>         0.2004
     19 H3          3.1902    0.8341    2.0691 H         1 <0>         0.2100
     20 H4         -0.6410    4.5497   -1.0155 H         1 <0>         0.0770
     21 H5         -0.6241    3.0644   -0.0302 H         1 <0>         0.0911
     22 H6         -2.0013    4.9118    0.9908 H         1 <0>         0.0979
     23 H7         -0.6587    4.3821    2.0336 H         1 <0>         0.0952
     24 H8         -0.5991    6.7939    0.1631 H         1 <0>         0.1435
     25 H9          1.5488    7.2788    1.3227 H         1 <0>         0.0982
     26 H10         1.3956    5.7518    2.2257 H         1 <0>         0.0950
     27 H11         2.8562    5.3847    0.3055 H         1 <0>         0.0911
     28 H12         1.6309    6.0644   -0.7963 H         1 <0>         0.0765
     29 H13        -0.7487    6.6070    3.0890 H         1 <0>         0.4340
     30 H14        -0.6018    7.9994    2.2205 H         1 <0>         0.4361
     31 H15        -1.9689    7.0888    2.0921 H         1 <0>         0.4362
@<TRIPOS>BOND
     1    1    6 2
     2    1    2 1
     3    1   18 1
     4    2   10 ar
     5    2    3 ar
     6    3    4 1
     7    3    7 ar
     8    4    5 1
     9    4    6 1
    10    7    8 ar
    11    8    9 ar
    12    8   19 1
    13    9   10 ar
    14   10   11 1
    15   11   16 1
    16   11   12 1
    17   12   13 1
    18   12   20 1
    19   12   21 1
    20   13   14 1
    21   13   22 1
    22   13   23 1
    23   14   15 1
    24   14   17 1
    25   14   24 1
    26   15   16 1
    27   15   25 1
    28   15   26 1
    29   16   27 1
    30   16   28 1
    31   17   29 1
    32   17   30 1
    33   17   31 1
@<TRIPOS>MOLECULE
CHEMBL265451
   31    33     0     0     0
SMALL
USER_CHARGES

@<TRIPOS>ATOM
      1 C1          2.5762    2.2182    2.5717 C.2       1 <0>         0.1435
      2 C2          2.3360    2.4525    1.2366 C.ar      1 <0>        -0.3244
      3 C3          1.7233    3.7900    1.1468 C.ar      1 <0>         0.2888
      4 N1          1.6404    4.2480    2.3766 N.2       1 <0>        -0.2705
      5 H1          2.2025    3.3870    4.2214 H         1 <0>         0.4558
      6 N2          2.1554    3.2892    3.2575 N.pl3     1 <0>        -0.4053
      7 N3          1.3937    4.2462   -0.0770 N.ar      1 <0>        -0.4951
      8 C4          1.6116    3.5243   -1.1447 C.ar      1 <0>         0.3559
      9 N4          2.1567    2.3182   -1.1374 N.ar      1 <0>        -0.5633
     10 C5          2.5384    1.7241   -0.0133 C.ar      1 <0>         0.5324
     11 N5          3.1040    0.4690   -0.0252 N.pl3     1 <0>        -0.6632
     12 C6          2.2640   -0.7317    0.0812 C.3       1 <0>         0.1511
     13 C7          2.5851   -1.6637   -1.0914 C.3       1 <0>        -0.1617
     14 C8          4.0886   -1.9486   -1.1145 C.3       1 <0>         0.0303
     15 C9          4.8546   -0.6389   -1.3146 C.3       1 <0>        -0.1617
     16 C10         4.5587    0.3046   -0.1506 C.3       1 <0>         0.1508
     17 N6          4.3956   -2.8685   -2.2178 N.4       1 <0>        -0.6370
     18 H2          3.0203    1.3279    2.9917 H         1 <0>         0.1965
     19 H3          1.3267    3.9409   -2.0995 H         1 <0>         0.2036
     20 H4          2.4732   -1.2420    1.0214 H         1 <0>         0.0755
     21 H5          1.2126   -0.4466    0.0440 H         1 <0>         0.0923
     22 H6          2.0393   -2.5997   -0.9723 H         1 <0>         0.0980
     23 H7          2.2908   -1.1868   -2.0263 H         1 <0>         0.0963
     24 H8          4.3867   -2.4028   -0.1695 H         1 <0>         0.1427
     25 H9          5.9242   -0.8454   -1.3543 H         1 <0>         0.0984
     26 H10         4.5390   -0.1716   -2.2474 H         1 <0>         0.0962
     27 H11         5.0208    1.2732   -0.3408 H         1 <0>         0.0923
     28 H12         4.9592   -0.1193    0.7703 H         1 <0>         0.0750
     29 H13         4.1193   -2.4486   -3.0927 H         1 <0>         0.4344
     30 H14         5.3868   -3.0564   -2.2332 H         1 <0>         0.4362
     31 H15         3.8915   -3.7325   -2.0854 H         1 <0>         0.4362
@<TRIPOS>BOND
     1    1   18 1
     2    1    2 2
     3    1    6 1
     4    2   10 ar
     5    2    3 ar
     6    3    7 ar
     7    3    4 2
     8    4    6 1
     9    5    6 1
    10    7    8 ar
    11    8    9 ar
    12    8   19 1
    13    9   10 ar
    14   10   11 1
    15   11   16 1
    16   11   12 1
    17   12   13 1
    18   12   20 1
    19   12   21 1
    20   13   14 1
    21   13   22 1
    22   13   23 1
    23   14   15 1
    24   14   17 1
    25   14   24 1
    26   15   16 1
    27   15   25 1
    28   15   26 1
    29   16   27 1
    30   16   28 1
    31   17   29 1
    32   17   30 1
    33   17   31 1
@<TRIPOS>MOLECULE
CHEMBL605410
   65    70     0     0     0
SMALL
USER_CHARGES

@<TRIPOS>ATOM
      1 C1          5.2103   -4.9967   -5.0142 C.3       1 <0>        -0.0790
      2 C2          4.9874   -4.0028   -3.9036 C.2       1 <0>         0.1306
      3 C3          3.9602   -3.0286   -3.8605 C.ar      1 <0>        -0.0039
      4 C4          4.1215   -2.3184   -2.6524 C.ar      1 <0>         0.2651
      5 N1          5.2065   -2.8657   -2.0201 N.pl3     1 <0>        -0.4774
      6 H1          5.5660   -2.5871   -1.1634 H         1 <0>         0.4527
      7 N2          5.7032   -3.9002   -2.8217 N.2       1 <0>        -0.2127
      8 N3          3.2854   -1.3328   -2.3461 N.ar      1 <0>        -0.4495
      9 C5          2.3075   -1.0196   -3.1696 C.ar      1 <0>         0.1348
     10 C6          2.1405   -1.7210   -4.3716 C.ar      1 <0>         0.1032
     11 N4          2.9675   -2.7070   -4.6897 N.ar      1 <0>        -0.3428
     12 C7          1.0360   -1.3594   -5.2894 C.ar      1 <0>        -0.0967
     13 C8          0.9001   -0.0469   -5.7540 C.ar      1 <0>        -0.0920
     14 C9         -0.1479    0.2444   -6.6104 C.ar      1 <0>        -0.0070
     15 C10        -1.0316   -0.7726   -6.9825 C.ar      1 <0>         0.4209
     16 N5         -0.8801   -2.0050   -6.5281 N.ar      1 <0>        -0.5013
     17 C11         0.1140   -2.3293   -5.7104 C.ar      1 <0>         0.2818
     18 C12         0.2468   -3.7252   -5.2331 C.2       1 <0>        -0.1527
     19 C13         0.1676   -4.1986   -3.8458 C.2       1 <0>        -0.1933
     20 C14         0.3447   -5.5291   -3.8976 C.2       1 <0>        -0.0280
     21 O1          0.5215   -5.8975   -5.1756 O.3       1 <0>        -0.1735
     22 C15         0.4613   -4.8345   -5.9896 C.2       1 <0>         0.0531
     23 C16         0.6098   -4.8633   -7.4890 C.3       1 <0>        -0.0789
     24 N6         -2.0854   -0.4840   -7.8425 N.pl3     1 <0>        -0.8402
     25 O2         -0.3162    1.5081   -7.0848 O.3       1 <0>        -0.3248
     26 C17         0.6279    2.4923   -6.6583 C.3       1 <0>         0.0309
     27 C18         0.2790    3.8414   -7.2901 C.3       1 <0>         0.0407
     28 H2          0.2244    3.7321   -8.3732 H         1 <0>         0.1628
     29 C19         1.3586    4.8655   -6.9346 C.3       1 <0>        -0.0747
     30 C20         1.0808    6.1592   -7.6558 C.2       1 <0>        -0.1210
     31 C21         1.5528    6.5162   -8.9425 C.ar      1 <0>        -0.1047
     32 C22         2.3540    5.8638   -9.8885 C.ar      1 <0>        -0.0705
     33 C23         2.6453    6.4791  -11.0712 C.ar      1 <0>        -0.1250
     34 C24         2.1544    7.7489  -11.3476 C.ar      1 <0>        -0.0688
     35 C25         1.3651    8.4106  -10.4335 C.ar      1 <0>        -0.1260
     36 C26         1.0539    7.8036   -9.2204 C.ar      1 <0>         0.1250
     37 N7          0.3088    8.1992   -8.1332 N.pl3     1 <0>        -0.5562
     38 H3         -0.1560    9.0460   -8.0452 H         1 <0>         0.4326
     39 C27         0.3273    7.1905   -7.1906 C.2       1 <0>         0.1225
     40 C28        -0.3387    7.2264   -5.9234 C.1       1 <0>         0.2322
     41 N8         -0.8670    7.2548   -4.9181 N.1       1 <0>        -0.3511
     42 N9         -1.0191    4.3006   -6.7782 N.4       1 <0>        -0.6391
     43 H4          4.6441   -5.9050   -4.8080 H         1 <0>         0.0898
     44 H5          4.8765   -4.5670   -5.9587 H         1 <0>         0.0889
     45 H6          6.2715   -5.2369   -5.0792 H         1 <0>         0.0859
     46 H7          1.6295   -0.2177   -2.9174 H         1 <0>         0.1766
     47 H8          1.5963    0.7213   -5.4512 H         1 <0>         0.1441
     48 H9          0.0012   -3.5991   -2.9630 H         1 <0>         0.1449
     49 H10         0.3447   -6.1952   -3.0474 H         1 <0>         0.2039
     50 H11         1.6603   -4.7408   -7.7525 H         1 <0>         0.0857
     51 H12         0.2481   -5.8177   -7.8716 H         1 <0>         0.0816
     52 H13         0.0283   -4.0522   -7.9273 H         1 <0>         0.0902
     53 H14        -2.2032    0.4178   -8.1798 H         1 <0>         0.4092
     54 H15        -2.7028   -1.1846   -8.1052 H         1 <0>         0.4122
     55 H16         0.5954    2.5804   -5.5724 H         1 <0>         0.0900
     56 H17         1.6292    2.1938   -6.9688 H         1 <0>         0.1148
     57 H18         1.3530    5.0408   -5.8588 H         1 <0>         0.1032
     58 H19         2.3344    4.4841   -7.2354 H         1 <0>         0.1369
     59 H20         2.7404    4.8767   -9.6821 H         1 <0>         0.1307
     60 H21         3.2635    5.9744  -11.7989 H         1 <0>         0.1351
     61 H22         2.3943    8.2218  -12.2885 H         1 <0>         0.1390
     62 H23         0.9888    9.3979  -10.6573 H         1 <0>         0.1333
     63 H24        -0.9686    4.4018   -5.7756 H         1 <0>         0.4299
     64 H25        -1.2492    5.1903   -7.1949 H         1 <0>         0.4318
     65 H26        -1.7311    3.6252   -7.0127 H         1 <0>         0.4441
@<TRIPOS>BOND
     1    1    2 1
     2    1   43 1
     3    1   44 1
     4    1   45 1
     5    2    7 2
     6    2    3 1
     7    3   11 ar
     8    3    4 ar
     9    4    5 1
    10    4    8 ar
    11    5    6 1
    12    5    7 1
    13    8    9 ar
    14    9   10 ar
    15    9   46 1
    16   10   11 ar
    17   10   12 1
    18   12   17 ar
    19   12   13 ar
    20   13   14 ar
    21   13   47 1
    22   14   15 ar
    23   14   25 1
    24   15   16 ar
    25   15   24 1
    26   16   17 ar
    27   17   18 1
    28   18   22 2
    29   18   19 1
    30   19   20 2
    31   19   48 1
    32   20   21 1
    33   20   49 1
    34   21   22 1
    35   22   23 1
    36   23   50 1
    37   23   51 1
    38   23   52 1
    39   24   53 1
    40   24   54 1
    41   25   26 1
    42   26   27 1
    43   26   55 1
    44   26   56 1
    45   27   28 1
    46   27   29 1
    47   27   42 1
    48   29   30 1
    49   29   57 1
    50   29   58 1
    51   30   39 2
    52   30   31 1
    53   31   36 ar
    54   31   32 ar
    55   32   33 ar
    56   32   59 1
    57   33   34 ar
    58   33   60 1
    59   34   35 ar
    60   34   61 1
    61   35   36 ar
    62   35   62 1
    63   36   37 1
    64   37   38 1
    65   37   39 1
    66   39   40 1
    67   40   41 3
    68   42   63 1
    69   42   64 1
    70   42   65 1
@<TRIPOS>MOLECULE
CHEMBL207544
   55    59     0     0     0
SMALL
USER_CHARGES

@<TRIPOS>ATOM
      1 C1          0.0180   -1.1779   -0.0044 C.1       1 <0>        -0.1082
      2 C2          0.0021   -0.0041    0.0020 C.1       1 <0>        -0.1665
      3 C3         -0.0173    1.4278    0.0099 C.ar      1 <0>         0.2299
      4 C4         -1.2474    2.1095    0.0311 C.ar      1 <0>        -0.0304
      5 C5         -1.2443    3.5044    0.0385 C.ar      1 <0>        -0.0828
      6 C6         -0.0199    4.1621    0.0244 C.ar      1 <0>         0.0702
      7 C7          1.1538    3.4188    0.0037 C.ar      1 <0>         0.0362
      8 N1          1.1256    2.1025    0.0026 N.ar      1 <0>        -0.4277
      9 O1          0.0288    5.5201    0.0305 O.3       1 <0>        -0.3192
     10 C8          1.3243    6.1229    0.0152 C.3       1 <0>         0.0242
     11 C9          1.1783    7.6459    0.0248 C.3       1 <0>         0.0434
     12 H1          0.5450    7.9555   -0.8066 H         1 <0>         0.1535
     13 C10         2.5582    8.2914   -0.1173 C.3       1 <0>        -0.0555
     14 C11         2.4042    9.7862   -0.2312 C.2       1 <0>        -0.2380
     15 C12         2.3415   10.4981   -1.3675 C.2       1 <0>         0.1043
     16 N2          2.2006   11.8280   -1.0777 N.pl3     1 <0>        -0.5845
     17 H2          2.1334   12.5376   -1.7356 H         1 <0>         0.4266
     18 C13         2.1684   12.0089    0.2869 C.ar      1 <0>         0.0988
     19 C14         2.2881   10.7372    0.8770 C.ar      1 <0>        -0.1171
     20 C15         2.2804   10.6109    2.2672 C.ar      1 <0>        -0.1143
     21 C16         2.1528   11.7246    3.0489 C.ar      1 <0>        -0.1189
     22 C17         2.0303   12.9808    2.4716 C.ar      1 <0>        -0.0931
     23 C18         2.0448   13.1292    1.1018 C.ar      1 <0>        -0.1109
     24 N3          0.5668    8.0712    1.2909 N.4       1 <0>        -0.6364
     25 C19        -2.5247    1.3588    0.0450 C.ar      1 <0>        -0.0409
     26 C20        -3.5115    1.6808    0.9920 C.ar      1 <0>        -0.1074
     27 C21        -4.6918    1.0090    1.0274 C.ar      1 <0>        -0.0769
     28 C22        -4.9364   -0.0240    0.1070 C.ar      1 <0>        -0.1077
     29 C23        -6.1410   -0.7452    0.1055 C.ar      1 <0>         0.1482
     30 N4         -6.3301   -1.7029   -0.7719 N.ar      1 <0>        -0.4815
     31 C24        -5.4225   -2.0348   -1.6800 C.ar      1 <0>         0.0842
     32 C25        -4.2220   -1.3973   -1.7622 C.ar      1 <0>        -0.1535
     33 C26        -3.9458   -0.3574   -0.8541 C.ar      1 <0>        -0.0227
     34 C27        -2.7378    0.3501   -0.8788 C.ar      1 <0>        -0.0762
     35 H3          0.0322   -2.2278   -0.0102 H         1 <0>         0.2325
     36 H4         -2.1704    4.0597    0.0544 H         1 <0>         0.1546
     37 H5          2.1054    3.9294   -0.0076 H         1 <0>         0.1651
     38 H6          1.8830    5.8059    0.8958 H         1 <0>         0.0935
     39 H7          1.8578    5.8147   -0.8840 H         1 <0>         0.1153
     40 H8          3.1622    8.0541    0.7585 H         1 <0>         0.1001
     41 H9          3.0486    7.9075   -1.0118 H         1 <0>         0.1220
     42 H10         2.3947   10.0828   -2.3630 H         1 <0>         0.1791
     43 H11         2.3746    9.6365    2.7233 H         1 <0>         0.1148
     44 H12         2.1468   11.6264    4.1244 H         1 <0>         0.1313
     45 H13         1.9294   13.8515    3.1026 H         1 <0>         0.1354
     46 H14         1.9476   14.1109    0.6621 H         1 <0>         0.1295
     47 H15         1.1530    7.7846    2.0605 H         1 <0>         0.4301
     48 H16         0.4705    9.0756    1.2973 H         1 <0>         0.4385
     49 H17        -3.3289    2.4736    1.7023 H         1 <0>         0.1289
     50 H18        -5.4402    1.2681    1.7617 H         1 <0>         0.1403
     51 H19        -6.9112   -0.5123    0.8259 H         1 <0>         0.1670
     52 H20        -5.6413   -2.8332   -2.3735 H         1 <0>         0.1581
     53 H21        -3.4965   -1.6834   -2.5092 H         1 <0>         0.1412
     54 H22        -1.9786    0.1085   -1.6079 H         1 <0>         0.1342
     55 H23        -0.3432    7.6455    1.3846 H         1 <0>         0.4393
@<TRIPOS>BOND
     1    1    2 3
     2    1   35 1
     3    2    3 1
     4    3    8 ar
     5    3    4 ar
     6    4    5 ar
     7    4   25 1
     8    5    6 ar
     9    5   36 1
    10    6    7 ar
    11    6    9 1
    12    7    8 ar
    13    7   37 1
    14    9   10 1
    15   10   11 1
    16   10   38 1
    17   10   39 1
    18   11   12 1
    19   11   13 1
    20   11   24 1
    21   13   14 1
    22   13   40 1
    23   13   41 1
    24   14   19 1
    25   14   15 2
    26   15   16 1
    27   15   42 1
    28   16   17 1
    29   16   18 1
    30   18   23 ar
    31   18   19 ar
    32   19   20 ar
    33   20   21 ar
    34   20   43 1
    35   21   22 ar
    36   21   44 1
    37   22   23 ar
    38   22   45 1
    39   23   46 1
    40   24   47 1
    41   24   48 1
    42   24   55 1
    43   25   34 ar
    44   25   26 ar
    45   26   27 ar
    46   26   49 1
    47   27   28 ar
    48   27   50 1
    49   28   33 ar
    50   28   29 ar
    51   29   30 ar
    52   29   51 1
    53   30   31 ar
    54   31   32 ar
    55   31   52 1
    56   32   33 ar
    57   32   53 1
    58   33   34 ar
    59   34   54 1
@<TRIPOS>MOLECULE
CHEMBL593375
   65    70     0     0     0
SMALL
USER_CHARGES

@<TRIPOS>ATOM
      1 C1         -0.6260    0.7888    0.2568 C.3       1 <0>        -0.0784
      2 C2         -0.5356   -0.7061    0.0887 C.2       1 <0>         0.1113
      3 C3         -0.4002   -1.4242   -1.1743 C.ar      1 <0>        -0.2208
      4 C4         -0.3169   -1.0307   -2.5137 C.ar      1 <0>         0.0169
      5 C5         -0.1901   -2.0252   -3.4794 C.ar      1 <0>        -0.1324
      6 C6         -0.1510   -3.3658   -3.0787 C.ar      1 <0>         0.2028
      7 N1         -0.2315   -3.7039   -1.8125 N.ar      1 <0>        -0.4967
      8 C7         -0.3535   -2.7954   -0.8514 C.ar      1 <0>         0.3226
      9 N2         -0.4548   -2.8781    0.5114 N.pl3     1 <0>        -0.4910
     10 H1         -0.4511   -3.7004    1.0259 H         1 <0>         0.4476
     11 N3         -0.5586   -1.5899    1.0449 N.2       1 <0>        -0.2298
     12 C8         -0.0979   -1.6687   -4.9154 C.ar      1 <0>        -0.0949
     13 C9         -1.0947   -0.8974   -5.5200 C.ar      1 <0>        -0.0996
     14 C10        -0.9663   -0.5890   -6.8643 C.ar      1 <0>        -0.0066
     15 C11         0.1462   -1.0540   -7.5702 C.ar      1 <0>         0.4129
     16 N4          1.0740   -1.7823   -6.9732 N.ar      1 <0>        -0.4994
     17 C12         0.9932   -2.0955   -5.6856 C.ar      1 <0>         0.2587
     18 C13         2.0617   -2.9081   -5.0587 C.2       1 <0>        -0.1632
     19 C14         2.7565   -2.6351   -3.7948 C.2       1 <0>        -0.1863
     20 C15         3.6367   -3.6367   -3.6318 C.2       1 <0>        -0.0266
     21 O1          3.5373   -4.4798   -4.6708 O.3       1 <0>        -0.1735
     22 C16         2.5978   -4.0644   -5.5320 C.2       1 <0>         0.0473
     23 C17         2.2048   -4.7595   -6.8100 C.3       1 <0>        -0.0731
     24 N5          0.2792   -0.7465   -8.9209 N.pl3     1 <0>        -0.8434
     25 O2         -1.9141    0.1588   -7.4910 O.3       1 <0>        -0.3268
     26 C18        -3.0219    0.5965   -6.7016 C.3       1 <0>         0.0311
     27 C19        -3.9755    1.4175   -7.5718 C.3       1 <0>         0.0430
     28 H2         -3.4269    2.2340   -8.0414 H         1 <0>         0.1523
     29 C20        -5.0955    1.9901   -6.7008 C.3       1 <0>        -0.0554
     30 C21        -5.9646    2.8978   -7.5327 C.2       1 <0>        -0.2372
     31 C22        -5.8488    4.2303   -7.6462 C.2       1 <0>         0.1037
     32 N6         -6.8134    4.7124   -8.4885 N.pl3     1 <0>        -0.5845
     33 H3         -6.9304    5.6457   -8.7256 H         1 <0>         0.4265
     34 C23        -7.5934    3.6755   -8.9492 C.ar      1 <0>         0.0988
     35 C24        -7.0919    2.4925   -8.3757 C.ar      1 <0>        -0.1170
     36 C25        -7.6904    1.2667   -8.6721 C.ar      1 <0>        -0.1141
     37 C26        -8.7597    1.2217   -9.5219 C.ar      1 <0>        -0.1190
     38 C27        -9.2556    2.3852  -10.0933 C.ar      1 <0>        -0.0931
     39 C28        -8.6858    3.6068   -9.8073 C.ar      1 <0>        -0.1110
     40 N7         -4.5551    0.5557   -8.6107 N.4       1 <0>        -0.6358
     41 H4          0.3757    1.2027    0.3719 H         1 <0>         0.0880
     42 H5         -1.1008    1.2252   -0.6220 H         1 <0>         0.0812
     43 H6         -1.2185    1.0197    1.1422 H         1 <0>         0.0848
     44 H7         -0.3503    0.0127   -2.7904 H         1 <0>         0.1383
     45 H8         -0.0530   -4.1384   -3.8269 H         1 <0>         0.1605
     46 H9         -1.9453   -0.5503   -4.9522 H         1 <0>         0.1420
     47 H10         2.5934   -1.7988   -3.1312 H         1 <0>         0.1478
     48 H11         4.3155   -3.7455   -2.7988 H         1 <0>         0.2054
     49 H12         2.8204   -4.3885   -7.6295 H         1 <0>         0.0898
     50 H13         2.3547   -5.8335   -6.7004 H         1 <0>         0.0797
     51 H14         1.1551   -4.5592   -7.0246 H         1 <0>         0.0843
     52 H15        -0.3977   -0.2129   -9.3658 H         1 <0>         0.4083
     53 H16         1.0488   -1.0658   -9.4175 H         1 <0>         0.4109
     54 H17        -3.5490   -0.2704   -6.3030 H         1 <0>         0.0880
     55 H18        -2.6603    1.2122   -5.8780 H         1 <0>         0.1098
     56 H19        -5.6989    1.1745   -6.3022 H         1 <0>         0.0990
     57 H20        -4.6615    2.5572   -5.8773 H         1 <0>         0.1210
     58 H21        -5.1047    4.8328   -7.1465 H         1 <0>         0.1789
     59 H22        -7.3095    0.3571   -8.2316 H         1 <0>         0.1147
     60 H23        -9.2224    0.2731   -9.7508 H         1 <0>         0.1311
     61 H24       -10.1008    2.3334  -10.7636 H         1 <0>         0.1352
     62 H25        -9.0782    4.5065  -10.2580 H         1 <0>         0.1294
     63 H26        -5.0629   -0.2001   -8.1760 H         1 <0>         0.4299
     64 H27        -5.1840    1.0972   -9.1846 H         1 <0>         0.4377
     65 H28        -3.8165    0.1781   -9.1851 H         1 <0>         0.4384
@<TRIPOS>BOND
     1    1    2 1
     2    1   41 1
     3    1   42 1
     4    1   43 1
     5    2   11 2
     6    2    3 1
     7    3    8 ar
     8    3    4 ar
     9    4    5 ar
    10    4   44 1
    11    5    6 ar
    12    5   12 1
    13    6    7 ar
    14    6   45 1
    15    7    8 ar
    16    8    9 1
    17    9   10 1
    18    9   11 1
    19   12   17 ar
    20   12   13 ar
    21   13   14 ar
    22   13   46 1
    23   14   15 ar
    24   14   25 1
    25   15   16 ar
    26   15   24 1
    27   16   17 ar
    28   17   18 1
    29   18   22 2
    30   18   19 1
    31   19   20 2
    32   19   47 1
    33   20   21 1
    34   20   48 1
    35   21   22 1
    36   22   23 1
    37   23   49 1
    38   23   50 1
    39   23   51 1
    40   24   52 1
    41   24   53 1
    42   25   26 1
    43   26   27 1
    44   26   54 1
    45   26   55 1
    46   27   28 1
    47   27   29 1
    48   27   40 1
    49   29   30 1
    50   29   56 1
    51   29   57 1
    52   30   35 1
    53   30   31 2
    54   31   32 1
    55   31   58 1
    56   32   33 1
    57   32   34 1
    58   34   39 ar
    59   34   35 ar
    60   35   36 ar
    61   36   37 ar
    62   36   59 1
    63   37   38 ar
    64   37   60 1
    65   38   39 ar
    66   38   61 1
    67   39   62 1
    68   40   63 1
    69   40   64 1
    70   40   65 1
@<TRIPOS>MOLECULE
CHEMBL254099
   73    79     0     0     0
SMALL
USER_CHARGES

@<TRIPOS>ATOM
      1 C1         -0.0225    1.8097    0.0120 C.3       1 <0>        -0.1489
      2 S1          0.0021   -0.0041    0.0020 S.3       1 <0>         0.0302
      3 C2          0.8767   -0.4266    1.4721 C.ar      1 <0>         0.3271
      4 N1          1.3174    0.5551    2.2576 N.ar      1 <0>        -0.5278
      5 C3          1.9766    0.3014    3.3689 C.ar      1 <0>         0.2399
      6 C4          2.2114   -1.0411    3.7185 C.ar      1 <0>        -0.2287
      7 C5          2.9053   -1.3920    4.8864 C.ar      1 <0>         0.0086
      8 C6          3.0909   -2.7406    5.1528 C.ar      1 <0>        -0.1090
      9 C7          2.5820   -3.7021    4.2518 C.ar      1 <0>         0.2474
     10 N2          1.9327   -3.3451    3.1593 N.ar      1 <0>        -0.4557
     11 C8          1.7278   -2.0628    2.8584 C.ar      1 <0>         0.3664
     12 N3          1.0636   -1.7028    1.7525 N.ar      1 <0>        -0.4843
     13 C9          2.7816   -5.1415    4.5386 C.ar      1 <0>        -0.0209
     14 C10         3.9528   -5.5760    5.1591 C.ar      1 <0>        -0.0763
     15 C11         4.1327   -6.9181    5.4241 C.ar      1 <0>        -0.1016
     16 C12         3.1545   -7.8322    5.0753 C.ar      1 <0>        -0.1449
     17 C13         1.9909   -7.4074    4.4592 C.ar      1 <0>        -0.0971
     18 C14         1.7967   -6.0672    4.1946 C.ar      1 <0>        -0.0683
     19 C15         3.3576   -9.2966    5.3671 C.3       1 <0>         0.0425
     20 N4          2.8280   -9.6080    6.7015 N.4       1 <0>        -0.3836
     21 C16         3.6083   -8.8894    7.7160 C.3       1 <0>        -0.0115
     22 C17         3.0105   -9.1461    9.1010 C.3       1 <0>        -0.1379
     23 C18         3.0469  -10.6483    9.3963 C.3       1 <0>         0.0022
     24 C19         2.2929  -11.3941    8.2915 C.3       1 <0>        -0.1402
     25 C20         2.9173  -11.0542    6.9364 C.3       1 <0>        -0.0033
     26 C21         2.3887  -10.9167   10.7251 C.2       1 <0>         0.2198
     27 N5          2.9771  -11.4788   11.7761 N.2       1 <0>        -0.5190
     28 H1          0.1257  -10.9686   12.8688 H         1 <0>         0.4543
     29 C22         2.1207  -11.5650   12.7733 C.2       1 <0>         0.3519
     30 N6          0.9449  -11.0437   12.3549 N.pl3     1 <0>        -0.4477
     31 N7          1.1492  -10.6282   11.0290 N.2       1 <0>        -0.3001
     32 C23         2.3958  -12.1321   14.1126 C.ar      1 <0>         0.1604
     33 C24         3.6643  -12.6321   14.4047 C.ar      1 <0>        -0.1103
     34 C25         3.9063  -13.1587   15.6617 C.ar      1 <0>        -0.0738
     35 C26         2.8715  -13.1685   16.5863 C.ar      1 <0>        -0.1434
     36 C27         1.6374  -12.6559   16.2291 C.ar      1 <0>         0.1095
     37 N8          1.4346  -12.1557   15.0278 N.ar      1 <0>        -0.4750
     38 C28         3.8172   -3.1690    6.3720 C.ar      1 <0>        -0.0500
     39 C29         3.2649   -4.1343    7.2126 C.ar      1 <0>        -0.0993
     40 C30         3.9459   -4.5295    8.3460 C.ar      1 <0>        -0.1211
     41 C31         5.1740   -3.9694    8.6488 C.ar      1 <0>        -0.1085
     42 C32         5.7270   -3.0112    7.8184 C.ar      1 <0>        -0.1114
     43 C33         5.0579   -2.6123    6.6792 C.ar      1 <0>        -0.1029
     44 H2          1.0001    2.1870    0.0043 H         1 <0>         0.0934
     45 H3         -0.5497    2.1708   -0.8711 H         1 <0>         0.1178
     46 H4         -0.5327    2.1613    0.9088 H         1 <0>         0.0933
     47 H5          2.3293    1.1056    3.9977 H         1 <0>         0.1879
     48 H6          3.2838   -0.6351    5.5574 H         1 <0>         0.1576
     49 H7          4.7174   -4.8634    5.4312 H         1 <0>         0.1444
     50 H8          5.0391   -7.2558    5.9044 H         1 <0>         0.1365
     51 H9          1.2311   -8.1257    4.1890 H         1 <0>         0.1372
     52 H10         0.8860   -5.7362    3.7177 H         1 <0>         0.1435
     53 H11         2.8331   -9.8921    4.6199 H         1 <0>         0.1398
     54 H12         4.4220   -9.5292    5.3353 H         1 <0>         0.1383
     55 H13         4.6402   -9.2399    7.6955 H         1 <0>         0.1333
     56 H14         3.5841   -7.8208    7.5026 H         1 <0>         0.1364
     57 H15         3.5924   -8.6131    9.8530 H         1 <0>         0.1152
     58 H16         1.9786   -8.7957    9.1226 H         1 <0>         0.0961
     59 H17         4.0818  -10.9891    9.4253 H         1 <0>         0.1175
     60 H18         2.3618  -12.4680    8.4649 H         1 <0>         0.1165
     61 H19         1.2461  -11.0904    8.2963 H         1 <0>         0.0966
     62 H20         2.3830  -11.5837    6.1476 H         1 <0>         0.1362
     63 H21         3.9639  -11.3585    6.9326 H         1 <0>         0.1339
     64 H22         4.4468  -12.6090   13.6607 H         1 <0>         0.1515
     65 H23         4.8785  -13.5536   15.9170 H         1 <0>         0.1489
     66 H24         3.0282  -13.5728   17.5754 H         1 <0>         0.1481
     67 H25         0.8301  -12.6625   16.9465 H         1 <0>         0.1699
     68 H26         2.3059   -4.5717    6.9776 H         1 <0>         0.1208
     69 H27         3.5191   -5.2772    8.9980 H         1 <0>         0.1229
     70 H28         5.7030   -4.2813    9.5372 H         1 <0>         0.1265
     71 H29         6.6860   -2.5771    8.0600 H         1 <0>         0.1304
     72 H30         5.4926   -1.8673    6.0293 H         1 <0>         0.1283
     73 H31         1.8628   -9.3186    6.7551 H         1 <0>         0.4237
@<TRIPOS>BOND
     1    1    2 1
     2    1   44 1
     3    1   45 1
     4    1   46 1
     5    2    3 1
     6    3   12 ar
     7    3    4 ar
     8    4    5 ar
     9    5    6 ar
    10    5   47 1
    11    6   11 ar
    12    6    7 ar
    13    7    8 ar
    14    7   48 1
    15    8    9 ar
    16    8   38 1
    17    9   10 ar
    18    9   13 1
    19   10   11 ar
    20   11   12 ar
    21   13   18 ar
    22   13   14 ar
    23   14   15 ar
    24   14   49 1
    25   15   16 ar
    26   15   50 1
    27   16   17 ar
    28   16   19 1
    29   17   18 ar
    30   17   51 1
    31   18   52 1
    32   19   20 1
    33   19   53 1
    34   19   54 1
    35   20   25 1
    36   20   21 1
    37   20   73 1
    38   21   22 1
    39   21   55 1
    40   21   56 1
    41   22   23 1
    42   22   57 1
    43   22   58 1
    44   23   24 1
    45   23   59 1
    46   23   26 1
    47   24   25 1
    48   24   60 1
    49   24   61 1
    50   25   62 1
    51   25   63 1
    52   26   27 1
    53   26   31 2
    54   27   29 2
    55   28   30 1
    56   29   32 1
    57   29   30 1
    58   30   31 1
    59   32   37 ar
    60   32   33 ar
    61   33   34 ar
    62   33   64 1
    63   34   35 ar
    64   34   65 1
    65   35   36 ar
    66   35   66 1
    67   36   37 ar
    68   36   67 1
    69   38   43 ar
    70   38   39 ar
    71   39   40 ar
    72   39   68 1
    73   40   41 ar
    74   40   69 1
    75   41   42 ar
    76   41   70 1
    77   42   43 ar
    78   42   71 1
    79   43   72 1
@<TRIPOS>MOLECULE
CHEMBL254099
   73    79     0     0     0
SMALL
USER_CHARGES

@<TRIPOS>ATOM
      1 C1         -0.0225    1.8097    0.0120 C.3       1 <0>        -0.1490
      2 S1          0.0021   -0.0041    0.0020 S.3       1 <0>         0.0307
      3 C2          0.8484   -0.4107   -1.4889 C.ar      1 <0>         0.3272
      4 N1          1.2837    0.5796   -2.2667 N.ar      1 <0>        -0.5275
      5 C3          1.9229    0.3379   -3.3923 C.ar      1 <0>         0.2401
      6 C4          2.1419   -1.0009   -3.7658 C.ar      1 <0>        -0.2286
      7 C5          2.8151   -1.3392   -4.9495 C.ar      1 <0>         0.0090
      8 C6          2.9869   -2.6849   -5.2387 C.ar      1 <0>        -0.1092
      9 C7          2.4852   -3.6562   -4.3441 C.ar      1 <0>         0.2461
     10 N2          1.8548   -3.3109   -3.2368 N.ar      1 <0>        -0.4556
     11 C8          1.6645   -2.0319   -2.9134 C.ar      1 <0>         0.3664
     12 N3          1.0298   -1.6838   -1.7865 N.ar      1 <0>        -0.4845
     13 C9          2.6699   -5.0924   -4.6553 C.ar      1 <0>        -0.0190
     14 C10         2.6327   -5.5326   -5.9783 C.ar      1 <0>        -0.0757
     15 C11         2.8060   -6.8718   -6.2619 C.ar      1 <0>        -0.1014
     16 C12         3.0157   -7.7773   -5.2372 C.ar      1 <0>        -0.1470
     17 C13         3.0532   -7.3469   -3.9229 C.ar      1 <0>        -0.0974
     18 C14         2.8875   -6.0093   -3.6271 C.ar      1 <0>        -0.0688
     19 C15         3.2037   -9.2386   -5.5539 C.3       1 <0>         0.0428
     20 N4          4.6315   -9.5150   -5.7612 N.4       1 <0>        -0.3846
     21 C16         5.1019   -8.7885   -6.9467 C.3       1 <0>        -0.0125
     22 C17         6.6062   -9.0081   -7.1205 C.3       1 <0>        -0.1384
     23 C18         6.8814  -10.5045   -7.2944 C.3       1 <0>        -0.0160
     24 C19         6.3204  -11.2604   -6.0865 C.3       1 <0>        -0.1491
     25 C20         4.8266  -10.9574   -5.9509 C.3       1 <0>        -0.0022
     26 C21         8.3676  -10.7360   -7.3879 C.2       1 <0>         0.2711
     27 N5          9.0592  -10.8309   -8.4921 N.2       1 <0>        -0.4884
     28 H1          8.9802  -10.8452   -5.4064 H         1 <0>         0.4405
     29 C22        10.3511  -11.0367   -8.2019 C.2       1 <0>         0.2881
     30 N6         10.4888  -11.0741   -6.8945 N.2       1 <0>        -0.2779
     31 N7          9.2106  -10.8746   -6.3482 N.pl3     1 <0>        -0.4753
     32 C23        11.4449  -11.1964   -9.1915 C.ar      1 <0>         0.1848
     33 C24        12.7491  -11.4118   -8.7511 C.ar      1 <0>        -0.1315
     34 C25        13.7588  -11.5594   -9.6860 C.ar      1 <0>        -0.0745
     35 C26        13.4307  -11.4867  -11.0326 C.ar      1 <0>        -0.1509
     36 C27        12.1153  -11.2706  -11.3991 C.ar      1 <0>         0.1033
     37 N8         11.1722  -11.1385  -10.4884 N.ar      1 <0>        -0.4470
     38 C28         3.6902   -3.1001   -6.4757 C.ar      1 <0>        -0.0504
     39 C29         4.7183   -4.0397   -6.4143 C.ar      1 <0>        -0.1003
     40 C30         5.3692   -4.4227   -7.5693 C.ar      1 <0>        -0.1215
     41 C31         5.0036   -3.8759   -8.7863 C.ar      1 <0>        -0.1078
     42 C32         3.9842   -2.9431   -8.8533 C.ar      1 <0>        -0.1109
     43 C33         3.3223   -2.5567   -7.7057 C.ar      1 <0>        -0.1026
     44 H2          1.0001    2.1870    0.0043 H         1 <0>         0.0934
     45 H3         -0.5497    2.1708   -0.8711 H         1 <0>         0.0935
     46 H4         -0.5327    2.1613    0.9088 H         1 <0>         0.1179
     47 H5          2.2708    1.1489   -4.0150 H         1 <0>         0.1881
     48 H6          3.1879   -0.5750   -5.6154 H         1 <0>         0.1578
     49 H7          2.4684   -4.8268   -6.7790 H         1 <0>         0.1449
     50 H8          2.7774   -7.2139   -7.2859 H         1 <0>         0.1370
     51 H9          3.2169   -8.0585   -3.1272 H         1 <0>         0.1368
     52 H10         2.9213   -5.6738   -2.6011 H         1 <0>         0.1437
     53 H11         2.8338   -9.8407   -4.7239 H         1 <0>         0.1406
     54 H12         2.6501   -9.4884   -6.4590 H         1 <0>         0.1395
     55 H13         4.5773   -9.1553   -7.8289 H         1 <0>         0.1369
     56 H14         4.9024   -7.7241   -6.8228 H         1 <0>         0.1393
     57 H15         6.9532   -8.4693   -8.0023 H         1 <0>         0.1245
     58 H16         7.1319   -8.6413   -6.2389 H         1 <0>         0.0899
     59 H17         6.3980  -10.8607   -8.2040 H         1 <0>         0.1306
     60 H18         6.4630  -12.3316   -6.2291 H         1 <0>         0.1235
     61 H19         6.8401  -10.9404   -5.1834 H         1 <0>         0.0882
     62 H20         4.4239  -11.4942   -5.0920 H         1 <0>         0.1392
     63 H21         4.3079  -11.2780   -6.8544 H         1 <0>         0.1378
     64 H22        12.9691  -11.4624   -7.6949 H         1 <0>         0.1436
     65 H23        14.7793  -11.7270   -9.3747 H         1 <0>         0.1455
     66 H24        14.1956  -11.5974  -11.7869 H         1 <0>         0.1449
     67 H25        11.8565  -11.2135  -12.4461 H         1 <0>         0.1668
     68 H26         5.0050   -4.4667   -5.4647 H         1 <0>         0.1201
     69 H27         6.1658   -5.1505   -7.5230 H         1 <0>         0.1225
     70 H28         5.5163   -4.1781   -9.6875 H         1 <0>         0.1273
     71 H29         3.7033   -2.5193   -9.8062 H         1 <0>         0.1308
     72 H30         2.5236   -1.8318   -7.7599 H         1 <0>         0.1285
     73 H31         5.1529   -9.2096   -4.9532 H         1 <0>         0.4223
@<TRIPOS>BOND
     1    1    2 1
     2    1   44 1
     3    1   45 1
     4    1   46 1
     5    2    3 1
     6    3   12 ar
     7    3    4 ar
     8    4    5 ar
     9    5    6 ar
    10    5   47 1
    11    6   11 ar
    12    6    7 ar
    13    7    8 ar
    14    7   48 1
    15    8    9 ar
    16    8   38 1
    17    9   10 ar
    18    9   13 1
    19   10   11 ar
    20   11   12 ar
    21   13   18 ar
    22   13   14 ar
    23   14   15 ar
    24   14   49 1
    25   15   16 ar
    26   15   50 1
    27   16   17 ar
    28   16   19 1
    29   17   18 ar
    30   17   51 1
    31   18   52 1
    32   19   20 1
    33   19   53 1
    34   19   54 1
    35   20   25 1
    36   20   21 1
    37   20   73 1
    38   21   22 1
    39   21   55 1
    40   21   56 1
    41   22   23 1
    42   22   57 1
    43   22   58 1
    44   23   24 1
    45   23   59 1
    46   23   26 1
    47   24   25 1
    48   24   60 1
    49   24   61 1
    50   25   62 1
    51   25   63 1
    52   26   27 2
    53   26   31 1
    54   27   29 1
    55   28   31 1
    56   29   32 1
    57   29   30 2
    58   30   31 1
    59   32   37 ar
    60   32   33 ar
    61   33   34 ar
    62   33   64 1
    63   34   35 ar
    64   34   65 1
    65   35   36 ar
    66   35   66 1
    67   36   37 ar
    68   36   67 1
    69   38   43 ar
    70   38   39 ar
    71   39   40 ar
    72   39   68 1
    73   40   41 ar
    74   40   69 1
    75   41   42 ar
    76   41   70 1
    77   42   43 ar
    78   42   71 1
    79   43   72 1
@<TRIPOS>MOLECULE
CHEMBL446134
   73    79     0     0     0
SMALL
USER_CHARGES

@<TRIPOS>ATOM
      1 C1         -0.0167    1.3791    0.0096 C.ar      1 <0>        -0.1085
      2 C2          1.1686    2.0923    0.0021 C.ar      1 <0>        -0.1114
      3 C3          2.3774    1.4267   -0.0135 C.ar      1 <0>        -0.1012
      4 C4          2.4025    0.0330   -0.0212 C.ar      1 <0>        -0.0521
      5 C5          1.2049   -0.6804   -0.0131 C.ar      1 <0>        -0.0990
      6 C6          0.0021   -0.0041    0.0020 C.ar      1 <0>        -0.1224
      7 C7          3.6980   -0.6879   -0.0385 C.ar      1 <0>        -0.0909
      8 C8          4.6857   -0.3493   -0.9631 C.ar      1 <0>         0.0019
      9 C9          5.8841   -1.0613   -0.9308 C.ar      1 <0>        -0.1755
     10 C10         6.0628   -2.0795    0.0127 C.ar      1 <0>         0.1767
     11 N1          5.1095   -2.3723    0.8692 N.ar      1 <0>        -0.4683
     12 C11         3.9536   -1.7198    0.8802 C.ar      1 <0>         0.1855
     13 C12         2.9169   -2.0883    1.8712 C.ar      1 <0>        -0.0109
     14 C13         2.0856   -1.1076    2.4127 C.ar      1 <0>        -0.0819
     15 C14         1.1215   -1.4573    3.3357 C.ar      1 <0>        -0.0996
     16 C15         0.9786   -2.7772    3.7247 C.ar      1 <0>        -0.1499
     17 C16         1.8000   -3.7544    3.1914 C.ar      1 <0>        -0.0968
     18 C17         2.7637   -3.4183    2.2629 C.ar      1 <0>        -0.0756
     19 C18        -0.0758   -3.1521    4.7341 C.3       1 <0>         0.0432
     20 N2         -1.3272   -3.4776    4.0370 N.4       1 <0>        -0.3834
     21 C19        -1.8347   -2.2782    3.3599 C.3       1 <0>        -0.0113
     22 C20        -3.0943   -2.6307    2.5658 C.3       1 <0>        -0.1379
     23 C21        -4.1614   -3.1681    3.5237 C.3       1 <0>         0.0021
     24 C22        -3.5949   -4.3741    4.2786 C.3       1 <0>        -0.1400
     25 C23        -2.3168   -3.9570    5.0093 C.3       1 <0>        -0.0033
     26 C24        -5.3766   -3.5904    2.7387 C.2       1 <0>         0.2198
     27 N3         -6.5995   -3.0904    2.8848 N.2       1 <0>        -0.5189
     28 H1         -7.0520   -5.1741    0.6402 H         1 <0>         0.4543
     29 C25        -7.4253   -3.6795    2.0444 C.2       1 <0>         0.3520
     30 N4         -6.7158   -4.5864    1.3347 N.pl3     1 <0>        -0.4477
     31 N5         -5.3939   -4.5033    1.8015 N.2       1 <0>        -0.3002
     32 C26        -8.8718   -3.3996    1.9026 C.ar      1 <0>         0.1603
     33 C27        -9.4700   -2.4277    2.7037 C.ar      1 <0>        -0.1102
     34 C28       -10.8235   -2.1770    2.5591 C.ar      1 <0>        -0.0738
     35 C29       -11.5355   -2.9066    1.6176 C.ar      1 <0>        -0.1434
     36 C30       -10.8783   -3.8563    0.8562 C.ar      1 <0>         0.1095
     37 N6         -9.5882   -4.0721    1.0099 N.ar      1 <0>        -0.4749
     38 C31         7.3683   -2.8332    0.0306 C.3       1 <0>        -0.0936
     39 C32         7.9088   -2.9712   -1.3905 C.3       1 <0>         0.1113
     40 N7          7.9509   -1.6764   -2.0645 N.am      1 <0>        -0.7225
     41 C33         6.9768   -0.7627   -1.8784 C.2       1 <0>         0.5679
     42 O1          6.9977    0.2920   -2.4825 O.2       1 <0>        -0.5227
     43 H2         -0.9603    1.9042    0.0260 H         1 <0>         0.1265
     44 H3          1.1479    3.1721    0.0082 H         1 <0>         0.1307
     45 H4          3.3022    1.9845   -0.0200 H         1 <0>         0.1289
     46 H5          1.2184   -1.7603   -0.0194 H         1 <0>         0.1199
     47 H6         -0.9264   -0.5557    0.0083 H         1 <0>         0.1226
     48 H7          4.5272    0.4407   -1.6822 H         1 <0>         0.1558
     49 H8          2.1967   -0.0768    2.1103 H         1 <0>         0.1428
     50 H9          0.4773   -0.6989    3.7556 H         1 <0>         0.1351
     51 H10         1.6836   -4.7831    3.4991 H         1 <0>         0.1355
     52 H11         3.4014   -4.1827    1.8439 H         1 <0>         0.1416
     53 H12         0.2587   -4.0189    5.3041 H         1 <0>         0.1390
     54 H13        -0.2444   -2.3148    5.4114 H         1 <0>         0.1375
     55 H14        -2.0748   -1.5168    4.1020 H         1 <0>         0.1331
     56 H15        -1.0730   -1.8951    2.6809 H         1 <0>         0.1364
     57 H16        -3.4706   -1.7385    2.0653 H         1 <0>         0.1152
     58 H17        -2.8553   -3.3919    1.8231 H         1 <0>         0.0960
     59 H18        -4.4379   -2.3898    4.2350 H         1 <0>         0.1175
     60 H19        -4.3290   -4.7280    5.0024 H         1 <0>         0.1164
     61 H20        -3.3662   -5.1715    3.5715 H         1 <0>         0.0966
     62 H21        -1.9109   -4.8133    5.5480 H         1 <0>         0.1359
     63 H22        -2.5466   -3.1598    5.7163 H         1 <0>         0.1338
     64 H23        -8.8855   -1.8785    3.4270 H         1 <0>         0.1515
     65 H24       -11.3146   -1.4304    3.1656 H         1 <0>         0.1489
     66 H25       -12.5929   -2.7349    1.4809 H         1 <0>         0.1481
     67 H26       -11.4299   -4.4259    0.1230 H         1 <0>         0.1699
     68 H27         8.0906   -2.2917    0.6415 H         1 <0>         0.1026
     69 H28         7.2083   -3.8244    0.4548 H         1 <0>         0.1130
     70 H29         8.9156   -3.3871   -1.3514 H         1 <0>         0.1032
     71 H30         7.2653   -3.6470   -1.9538 H         1 <0>         0.0728
     72 H31         8.6917   -1.4702   -2.6558 H         1 <0>         0.4129
     73 H32        -1.1523   -4.1987    3.3532 H         1 <0>         0.4234
@<TRIPOS>BOND
     1    1    6 ar
     2    1    2 ar
     3    1   43 1
     4    2    3 ar
     5    2   44 1
     6    3    4 ar
     7    3   45 1
     8    4    5 ar
     9    4    7 1
    10    5    6 ar
    11    5   46 1
    12    6   47 1
    13    7   12 ar
    14    7    8 ar
    15    8    9 ar
    16    8   48 1
    17    9   41 1
    18    9   10 ar
    19   10   11 ar
    20   10   38 1
    21   11   12 ar
    22   12   13 1
    23   13   18 ar
    24   13   14 ar
    25   14   15 ar
    26   14   49 1
    27   15   16 ar
    28   15   50 1
    29   16   17 ar
    30   16   19 1
    31   17   18 ar
    32   17   51 1
    33   18   52 1
    34   19   20 1
    35   19   53 1
    36   19   54 1
    37   20   25 1
    38   20   21 1
    39   20   73 1
    40   21   22 1
    41   21   55 1
    42   21   56 1
    43   22   23 1
    44   22   57 1
    45   22   58 1
    46   23   24 1
    47   23   59 1
    48   23   26 1
    49   24   25 1
    50   24   60 1
    51   24   61 1
    52   25   62 1
    53   25   63 1
    54   26   27 1
    55   26   31 2
    56   27   29 2
    57   28   30 1
    58   29   32 1
    59   29   30 1
    60   30   31 1
    61   32   37 ar
    62   32   33 ar
    63   33   34 ar
    64   33   64 1
    65   34   35 ar
    66   34   65 1
    67   35   36 ar
    68   35   66 1
    69   36   37 ar
    70   36   67 1
    71   38   39 1
    72   38   68 1
    73   38   69 1
    74   39   40 1
    75   39   70 1
    76   39   71 1
    77   40   41 am
    78   40   72 1
    79   41   42 2
@<TRIPOS>MOLECULE
CHEMBL446134
   73    79     0     0     0
SMALL
USER_CHARGES

@<TRIPOS>ATOM
      1 C1         -0.0167    1.3791    0.0096 C.ar      1 <0>        -0.1077
      2 C2          1.1686    2.0923    0.0021 C.ar      1 <0>        -0.1108
      3 C3          2.3774    1.4267   -0.0135 C.ar      1 <0>        -0.1009
      4 C4          2.4025    0.0330   -0.0212 C.ar      1 <0>        -0.0526
      5 C5          1.2049   -0.6804   -0.0131 C.ar      1 <0>        -0.0999
      6 C6          0.0021   -0.0041    0.0020 C.ar      1 <0>        -0.1228
      7 C7          3.6980   -0.6879   -0.0385 C.ar      1 <0>        -0.0903
      8 C8          4.6857   -0.3493   -0.9631 C.ar      1 <0>         0.0018
      9 C9          5.8841   -1.0613   -0.9308 C.ar      1 <0>        -0.1745
     10 C10         6.0628   -2.0795    0.0127 C.ar      1 <0>         0.1767
     11 N1          5.1095   -2.3723    0.8692 N.ar      1 <0>        -0.4682
     12 C11         3.9536   -1.7198    0.8802 C.ar      1 <0>         0.1839
     13 C12         2.9169   -2.0883    1.8712 C.ar      1 <0>        -0.0089
     14 C13         2.0856   -1.1076    2.4127 C.ar      1 <0>        -0.0814
     15 C14         1.1215   -1.4573    3.3357 C.ar      1 <0>        -0.0994
     16 C15         0.9786   -2.7772    3.7247 C.ar      1 <0>        -0.1520
     17 C16         1.8000   -3.7544    3.1914 C.ar      1 <0>        -0.0970
     18 C17         2.7637   -3.4183    2.2629 C.ar      1 <0>        -0.0761
     19 C18        -0.0758   -3.1521    4.7341 C.3       1 <0>         0.0434
     20 N2         -1.3272   -3.4776    4.0370 N.4       1 <0>        -0.3844
     21 C19        -1.8347   -2.2782    3.3599 C.3       1 <0>        -0.0123
     22 C20        -3.0943   -2.6307    2.5658 C.3       1 <0>        -0.1383
     23 C21        -4.1614   -3.1681    3.5237 C.3       1 <0>        -0.0161
     24 C22        -3.5949   -4.3741    4.2786 C.3       1 <0>        -0.1489
     25 C23        -2.3168   -3.9570    5.0093 C.3       1 <0>        -0.0022
     26 C24        -5.3766   -3.5904    2.7387 C.2       1 <0>         0.2712
     27 N3         -6.4360   -2.8590    2.5163 N.2       1 <0>        -0.4883
     28 H1         -4.9313   -5.5270    2.1352 H         1 <0>         0.4403
     29 C25        -7.3193   -3.5510    1.7840 C.2       1 <0>         0.2884
     30 N4         -6.8192   -4.7413    1.5340 N.2       1 <0>        -0.2780
     31 N5         -5.5539   -4.7833    2.1419 N.pl3     1 <0>        -0.4754
     32 C26        -8.6426   -3.0564    1.3306 C.ar      1 <0>         0.1847
     33 C27        -9.4688   -3.8864    0.5758 C.ar      1 <0>        -0.1315
     34 C28       -10.7006   -3.4113    0.1605 C.ar      1 <0>        -0.0745
     35 C29       -11.0662   -2.1200    0.5142 C.ar      1 <0>        -0.1509
     36 C30       -10.1968   -1.3510    1.2652 C.ar      1 <0>         0.1034
     37 N6         -9.0317   -1.8297    1.6520 N.ar      1 <0>        -0.4470
     38 C31         7.3683   -2.8332    0.0306 C.3       1 <0>        -0.0936
     39 C32         7.9088   -2.9712   -1.3905 C.3       1 <0>         0.1113
     40 N7          7.9509   -1.6764   -2.0645 N.am      1 <0>        -0.7225
     41 C33         6.9768   -0.7627   -1.8784 C.2       1 <0>         0.5676
     42 O1          6.9977    0.2920   -2.4825 O.2       1 <0>        -0.5221
     43 H2         -0.9603    1.9042    0.0260 H         1 <0>         0.1274
     44 H3          1.1479    3.1721    0.0082 H         1 <0>         0.1312
     45 H4          3.3022    1.9845   -0.0200 H         1 <0>         0.1291
     46 H5          1.2184   -1.7603   -0.0194 H         1 <0>         0.1192
     47 H6         -0.9264   -0.5557    0.0083 H         1 <0>         0.1223
     48 H7          4.5272    0.4407   -1.6822 H         1 <0>         0.1560
     49 H8          2.1967   -0.0768    2.1103 H         1 <0>         0.1434
     50 H9          0.4773   -0.6989    3.7556 H         1 <0>         0.1355
     51 H10         1.6836   -4.7831    3.4991 H         1 <0>         0.1351
     52 H11         3.4014   -4.1827    1.8439 H         1 <0>         0.1417
     53 H12         0.2587   -4.0189    5.3041 H         1 <0>         0.1397
     54 H13        -0.2444   -2.3148    5.4114 H         1 <0>         0.1387
     55 H14        -2.0748   -1.5168    4.1020 H         1 <0>         0.1367
     56 H15        -1.0730   -1.8951    2.6809 H         1 <0>         0.1393
     57 H16        -3.4706   -1.7385    2.0653 H         1 <0>         0.1245
     58 H17        -2.8553   -3.3919    1.8231 H         1 <0>         0.0898
     59 H18        -4.4379   -2.3898    4.2350 H         1 <0>         0.1306
     60 H19        -4.3290   -4.7280    5.0024 H         1 <0>         0.1234
     61 H20        -3.3662   -5.1715    3.5715 H         1 <0>         0.0881
     62 H21        -1.9109   -4.8133    5.5480 H         1 <0>         0.1390
     63 H22        -2.5466   -3.1598    5.7163 H         1 <0>         0.1376
     64 H23        -9.1523   -4.8863    0.3181 H         1 <0>         0.1436
     65 H24       -11.3623   -4.0314   -0.4260 H         1 <0>         0.1455
     66 H25       -12.0205   -1.7197    0.2054 H         1 <0>         0.1450
     67 H26       -10.4782   -0.3458    1.5422 H         1 <0>         0.1668
     68 H27         8.0906   -2.2917    0.6415 H         1 <0>         0.1027
     69 H28         7.2083   -3.8244    0.4548 H         1 <0>         0.1130
     70 H29         8.9156   -3.3871   -1.3514 H         1 <0>         0.1034
     71 H30         7.2653   -3.6470   -1.9538 H         1 <0>         0.0727
     72 H31         8.6917   -1.4702   -2.6558 H         1 <0>         0.4131
     73 H32        -1.1523   -4.1987    3.3532 H         1 <0>         0.4220
@<TRIPOS>BOND
     1    1    6 ar
     2    1    2 ar
     3    1   43 1
     4    2    3 ar
     5    2   44 1
     6    3    4 ar
     7    3   45 1
     8    4    5 ar
     9    4    7 1
    10    5    6 ar
    11    5   46 1
    12    6   47 1
    13    7   12 ar
    14    7    8 ar
    15    8    9 ar
    16    8   48 1
    17    9   41 1
    18    9   10 ar
    19   10   11 ar
    20   10   38 1
    21   11   12 ar
    22   12   13 1
    23   13   18 ar
    24   13   14 ar
    25   14   15 ar
    26   14   49 1
    27   15   16 ar
    28   15   50 1
    29   16   17 ar
    30   16   19 1
    31   17   18 ar
    32   17   51 1
    33   18   52 1
    34   19   20 1
    35   19   53 1
    36   19   54 1
    37   20   25 1
    38   20   21 1
    39   20   73 1
    40   21   22 1
    41   21   55 1
    42   21   56 1
    43   22   23 1
    44   22   57 1
    45   22   58 1
    46   23   24 1
    47   23   59 1
    48   23   26 1
    49   24   25 1
    50   24   60 1
    51   24   61 1
    52   25   62 1
    53   25   63 1
    54   26   27 2
    55   26   31 1
    56   27   29 1
    57   28   31 1
    58   29   32 1
    59   29   30 2
    60   30   31 1
    61   32   37 ar
    62   32   33 ar
    63   33   34 ar
    64   33   64 1
    65   34   35 ar
    66   34   65 1
    67   35   36 ar
    68   35   66 1
    69   36   37 ar
    70   36   67 1
    71   38   39 1
    72   38   68 1
    73   38   69 1
    74   39   40 1
    75   39   70 1
    76   39   71 1
    77   40   41 am
    78   40   72 1
    79   41   42 2
@<TRIPOS>MOLECULE
CHEMBL261540
   71    77     0     0     0
SMALL
USER_CHARGES

@<TRIPOS>ATOM
      1 C1         -0.0167    1.3791    0.0096 C.ar      1 <0>        -0.1096
      2 C2          1.1686    2.0924    0.0021 C.ar      1 <0>        -0.1120
      3 C3          2.3774    1.4269   -0.0129 C.ar      1 <0>        -0.1036
      4 C4          2.4026    0.0330   -0.0206 C.ar      1 <0>        -0.0493
      5 C5          1.2049   -0.6804   -0.0130 C.ar      1 <0>        -0.0994
      6 C6          0.0021   -0.0041    0.0020 C.ar      1 <0>        -0.1215
      7 C7          3.6978   -0.6877   -0.0373 C.ar      1 <0>        -0.0977
      8 C8          4.6763   -0.3476   -0.9576 C.ar      1 <0>        -0.0224
      9 C9          5.8866   -1.0617   -0.9306 C.ar      1 <0>        -0.1488
     10 C10         6.9249   -0.7709   -1.8343 C.ar      1 <0>        -0.0423
     11 C11         8.0755   -1.5042   -1.7522 C.ar      1 <0>        -0.1695
     12 C12         8.1910   -2.5057   -0.7916 C.ar      1 <0>         0.1691
     13 N1          7.2207   -2.7734    0.0487 N.ar      1 <0>        -0.4655
     14 C13         6.0680   -2.0947    0.0240 C.ar      1 <0>         0.3110
     15 N2          5.0919   -2.3827    0.8895 N.ar      1 <0>        -0.4468
     16 C14         3.9497   -1.7249    0.8891 C.ar      1 <0>         0.2181
     17 C15         2.9058   -2.0841    1.8768 C.ar      1 <0>        -0.0125
     18 C16         2.0780   -1.0970    2.4110 C.ar      1 <0>        -0.0802
     19 C17         1.1071   -1.4378    3.3303 C.ar      1 <0>        -0.1007
     20 C18         0.9539   -2.7557    3.7223 C.ar      1 <0>        -0.1491
     21 C19         1.7720   -3.7394    3.1960 C.ar      1 <0>        -0.0968
     22 C20         2.7430   -3.4117    2.2720 C.ar      1 <0>        -0.0725
     23 C21        -0.1081   -3.1211    4.7271 C.3       1 <0>         0.0430
     24 N3         -1.3578   -3.4409    4.0243 N.4       1 <0>        -0.3824
     25 C22        -1.8543   -2.2403    3.3413 C.3       1 <0>        -0.0129
     26 C23        -3.1119   -2.5872    2.5415 C.3       1 <0>        -0.1352
     27 C24        -4.1873   -3.1153    3.4953 C.3       1 <0>        -0.0139
     28 C25        -3.6322   -4.3226    4.2566 C.3       1 <0>        -0.1391
     29 C26        -2.3554   -3.9114    4.9928 C.3       1 <0>        -0.0054
     30 C27        -5.4009   -3.5323    2.7052 C.2       1 <0>         0.0685
     31 C28        -5.5905   -4.7743    2.0997 C.2       1 <0>        -0.2431
     32 C29        -6.8106   -4.7586    1.4845 C.2       1 <0>         0.1371
     33 N4         -7.3613   -3.5314    1.7066 N.pl3     1 <0>        -0.4599
     34 H1         -8.2265   -3.2270    1.3911 H         1 <0>         0.4454
     35 N5         -6.4556   -2.7911    2.4773 N.2       1 <0>        -0.2625
     36 C30        -7.4205   -5.8675    0.7186 C.ar      1 <0>         0.0017
     37 C31        -6.7528   -7.0878    0.5648 C.ar      1 <0>        -0.1460
     38 C32        -7.3582   -8.0948   -0.1574 C.ar      1 <0>         0.1105
     39 N6         -8.5485   -7.9189   -0.6989 N.ar      1 <0>        -0.4742
     40 C33        -9.2120   -6.7847   -0.5782 C.ar      1 <0>         0.1140
     41 C34        -8.6836   -5.7273    0.1325 C.ar      1 <0>        -0.1644
     42 H2         -0.9603    1.9042    0.0260 H         1 <0>         0.1262
     43 H3          1.1478    3.1722    0.0077 H         1 <0>         0.1299
     44 H4          3.3021    1.9847   -0.0191 H         1 <0>         0.1275
     45 H5          1.2183   -1.7603   -0.0193 H         1 <0>         0.1205
     46 H6         -0.9264   -0.5557    0.0082 H         1 <0>         0.1225
     47 H7          4.5135    0.4431   -1.6750 H         1 <0>         0.1508
     48 H8          6.8159    0.0098   -2.5725 H         1 <0>         0.1480
     49 H9          8.8924   -1.3077   -2.4307 H         1 <0>         0.1509
     50 H10         9.1052   -3.0782   -0.7375 H         1 <0>         0.1738
     51 H11         2.1969   -0.0678    2.1059 H         1 <0>         0.1429
     52 H12         0.4657   -0.6742    3.7449 H         1 <0>         0.1348
     53 H13         1.6480   -4.7664    3.5061 H         1 <0>         0.1359
     54 H14         3.3781   -4.1811    1.8584 H         1 <0>         0.1426
     55 H15         0.2181   -3.9884    5.3013 H         1 <0>         0.1391
     56 H16        -0.2750   -2.2810    5.4012 H         1 <0>         0.1369
     57 H17        -2.0935   -1.4754    4.0800 H         1 <0>         0.1313
     58 H18        -1.0866   -1.8638    2.6652 H         1 <0>         0.1355
     59 H19        -3.4799   -1.6941    2.0366 H         1 <0>         0.1144
     60 H20        -2.8736   -3.3520    1.8023 H         1 <0>         0.0922
     61 H21        -4.4626   -2.3334    4.2030 H         1 <0>         0.1051
     62 H22        -4.3723   -4.6700    4.9775 H         1 <0>         0.1173
     63 H23        -3.4048   -5.1234    3.5529 H         1 <0>         0.0944
     64 H24        -1.9577   -4.7687    5.5360 H         1 <0>         0.1353
     65 H25        -2.5839   -3.1108    5.6963 H         1 <0>         0.1319
     66 H26        -4.8962   -5.6014    2.1142 H         1 <0>         0.1527
     67 H27        -5.7780   -7.2386    1.0047 H         1 <0>         0.1415
     68 H28        -6.8510   -9.0402   -0.2816 H         1 <0>         0.1656
     69 H29       -10.1838   -6.6845   -1.0385 H         1 <0>         0.1652
     70 H30        -9.2344   -4.8036    0.2314 H         1 <0>         0.1337
     71 H31        -1.1838   -4.1650    3.3435 H         1 <0>         0.4226
@<TRIPOS>BOND
     1    1    6 ar
     2    1    2 ar
     3    1   42 1
     4    2    3 ar
     5    2   43 1
     6    3    4 ar
     7    3   44 1
     8    4    5 ar
     9    4    7 1
    10    5    6 ar
    11    5   45 1
    12    6   46 1
    13    7   16 ar
    14    7    8 ar
    15    8    9 ar
    16    8   47 1
    17    9   14 ar
    18    9   10 ar
    19   10   11 ar
    20   10   48 1
    21   11   12 ar
    22   11   49 1
    23   12   13 ar
    24   12   50 1
    25   13   14 ar
    26   14   15 ar
    27   15   16 ar
    28   16   17 1
    29   17   22 ar
    30   17   18 ar
    31   18   19 ar
    32   18   51 1
    33   19   20 ar
    34   19   52 1
    35   20   21 ar
    36   20   23 1
    37   21   22 ar
    38   21   53 1
    39   22   54 1
    40   23   24 1
    41   23   55 1
    42   23   56 1
    43   24   29 1
    44   24   25 1
    45   24   71 1
    46   25   26 1
    47   25   57 1
    48   25   58 1
    49   26   27 1
    50   26   59 1
    51   26   60 1
    52   27   28 1
    53   27   30 1
    54   27   61 1
    55   28   29 1
    56   28   62 1
    57   28   63 1
    58   29   64 1
    59   29   65 1
    60   30   35 2
    61   30   31 1
    62   31   32 2
    63   31   66 1
    64   32   33 1
    65   32   36 1
    66   33   34 1
    67   33   35 1
    68   36   41 ar
    69   36   37 ar
    70   37   38 ar
    71   37   67 1
    72   38   39 ar
    73   38   68 1
    74   39   40 ar
    75   40   41 ar
    76   40   69 1
    77   41   70 1
@<TRIPOS>MOLECULE
CHEMBL261540
   71    77     0     0     0
SMALL
USER_CHARGES

@<TRIPOS>ATOM
      1 C1         -0.0167    1.3791    0.0096 C.ar      1 <0>        -0.1097
      2 C2          1.1686    2.0924    0.0021 C.ar      1 <0>        -0.1113
      3 C3          2.3774    1.4269   -0.0129 C.ar      1 <0>        -0.1030
      4 C4          2.4026    0.0330   -0.0206 C.ar      1 <0>        -0.0486
      5 C5          1.2049   -0.6804   -0.0130 C.ar      1 <0>        -0.1001
      6 C6          0.0021   -0.0041    0.0020 C.ar      1 <0>        -0.1223
      7 C7          3.6978   -0.6877   -0.0373 C.ar      1 <0>        -0.0985
      8 C8          4.6763   -0.3476   -0.9576 C.ar      1 <0>        -0.0218
      9 C9          5.8866   -1.0617   -0.9306 C.ar      1 <0>        -0.1485
     10 C10         6.9249   -0.7709   -1.8343 C.ar      1 <0>        -0.0423
     11 C11         8.0755   -1.5042   -1.7522 C.ar      1 <0>        -0.1689
     12 C12         8.1910   -2.5057   -0.7916 C.ar      1 <0>         0.1696
     13 N1          7.2207   -2.7734    0.0487 N.ar      1 <0>        -0.4655
     14 C13         6.0680   -2.0947    0.0240 C.ar      1 <0>         0.3110
     15 N2          5.0919   -2.3827    0.8895 N.ar      1 <0>        -0.4465
     16 C14         3.9497   -1.7249    0.8891 C.ar      1 <0>         0.2170
     17 C15         2.9058   -2.0841    1.8768 C.ar      1 <0>        -0.0109
     18 C16         2.0780   -1.0970    2.4110 C.ar      1 <0>        -0.0800
     19 C17         1.1071   -1.4378    3.3303 C.ar      1 <0>        -0.1009
     20 C18         0.9539   -2.7557    3.7223 C.ar      1 <0>        -0.1511
     21 C19         1.7720   -3.7394    3.1960 C.ar      1 <0>        -0.0968
     22 C20         2.7430   -3.4117    2.2720 C.ar      1 <0>        -0.0726
     23 C21        -0.1081   -3.1211    4.7271 C.3       1 <0>         0.0433
     24 N3         -1.3578   -3.4409    4.0243 N.4       1 <0>        -0.3834
     25 C22        -1.8543   -2.2403    3.3413 C.3       1 <0>        -0.0121
     26 C23        -3.1119   -2.5872    2.5415 C.3       1 <0>        -0.1458
     27 C24        -4.1873   -3.1153    3.4953 C.3       1 <0>        -0.0310
     28 C25        -3.6322   -4.3226    4.2566 C.3       1 <0>        -0.1407
     29 C26        -2.3554   -3.9114    4.9928 C.3       1 <0>        -0.0059
     30 C27        -5.4009   -3.5323    2.7052 C.2       1 <0>         0.0762
     31 C28        -6.6864   -3.4132    3.1023 C.2       1 <0>        -0.2309
     32 C29        -7.5048   -3.9196    2.0737 C.2       1 <0>         0.1193
     33 N4         -6.7220   -4.3263    1.0964 N.2       1 <0>        -0.2573
     34 H1         -4.6074   -4.2832    0.9421 H         1 <0>         0.4379
     35 N5         -5.3946   -4.0853    1.4731 N.pl3     1 <0>        -0.4663
     36 C30        -8.9870   -3.9839    2.0892 C.ar      1 <0>         0.0174
     37 C31        -9.7145   -3.5142    3.1864 C.ar      1 <0>        -0.1495
     38 C32       -11.0916   -3.5929    3.1596 C.ar      1 <0>         0.1036
     39 N6        -11.7206   -4.1028    2.1180 N.ar      1 <0>        -0.4761
     40 C33       -11.0717   -4.5570    1.0628 C.ar      1 <0>         0.1046
     41 C34        -9.6941   -4.5104    1.0046 C.ar      1 <0>        -0.1456
     42 H2         -0.9603    1.9042    0.0260 H         1 <0>         0.1263
     43 H3          1.1478    3.1722    0.0077 H         1 <0>         0.1304
     44 H4          3.3021    1.9847   -0.0191 H         1 <0>         0.1280
     45 H5          1.2183   -1.7603   -0.0193 H         1 <0>         0.1199
     46 H6         -0.9264   -0.5557    0.0082 H         1 <0>         0.1213
     47 H7          4.5135    0.4431   -1.6750 H         1 <0>         0.1511
     48 H8          6.8159    0.0098   -2.5725 H         1 <0>         0.1483
     49 H9          8.8924   -1.3077   -2.4307 H         1 <0>         0.1513
     50 H10         9.1052   -3.0782   -0.7375 H         1 <0>         0.1742
     51 H11         2.1969   -0.0678    2.1059 H         1 <0>         0.1434
     52 H12         0.4657   -0.6742    3.7449 H         1 <0>         0.1349
     53 H13         1.6480   -4.7664    3.5061 H         1 <0>         0.1357
     54 H14         3.3781   -4.1811    1.8584 H         1 <0>         0.1430
     55 H15         0.2181   -3.9884    5.3013 H         1 <0>         0.1397
     56 H16        -0.2750   -2.2810    5.4012 H         1 <0>         0.1380
     57 H17        -2.0935   -1.4754    4.0800 H         1 <0>         0.1344
     58 H18        -1.0866   -1.8638    2.6652 H         1 <0>         0.1374
     59 H19        -3.4799   -1.6941    2.0366 H         1 <0>         0.1193
     60 H20        -2.8736   -3.3520    1.8023 H         1 <0>         0.0845
     61 H21        -4.4626   -2.3334    4.2030 H         1 <0>         0.1179
     62 H22        -4.3723   -4.6700    4.9775 H         1 <0>         0.1215
     63 H23        -3.4048   -5.1234    3.5529 H         1 <0>         0.0887
     64 H24        -1.9577   -4.7687    5.5360 H         1 <0>         0.1363
     65 H25        -2.5839   -3.1108    5.6963 H         1 <0>         0.1345
     66 H26        -7.0263   -3.0029    4.0418 H         1 <0>         0.1559
     67 H27        -9.2060   -3.0962    4.0426 H         1 <0>         0.1392
     68 H28       -11.6623   -3.2325    4.0027 H         1 <0>         0.1629
     69 H29       -11.6266   -4.9668    0.2318 H         1 <0>         0.1627
     70 H30        -9.1696   -4.8796    0.1357 H         1 <0>         0.1415
     71 H31        -1.1838   -4.1650    3.3435 H         1 <0>         0.4219
@<TRIPOS>BOND
     1    1    6 ar
     2    1    2 ar
     3    1   42 1
     4    2    3 ar
     5    2   43 1
     6    3    4 ar
     7    3   44 1
     8    4    5 ar
     9    4    7 1
    10    5    6 ar
    11    5   45 1
    12    6   46 1
    13    7   16 ar
    14    7    8 ar
    15    8    9 ar
    16    8   47 1
    17    9   14 ar
    18    9   10 ar
    19   10   11 ar
    20   10   48 1
    21   11   12 ar
    22   11   49 1
    23   12   13 ar
    24   12   50 1
    25   13   14 ar
    26   14   15 ar
    27   15   16 ar
    28   16   17 1
    29   17   22 ar
    30   17   18 ar
    31   18   19 ar
    32   18   51 1
    33   19   20 ar
    34   19   52 1
    35   20   21 ar
    36   20   23 1
    37   21   22 ar
    38   21   53 1
    39   22   54 1
    40   23   24 1
    41   23   55 1
    42   23   56 1
    43   24   29 1
    44   24   25 1
    45   24   71 1
    46   25   26 1
    47   25   57 1
    48   25   58 1
    49   26   27 1
    50   26   59 1
    51   26   60 1
    52   27   28 1
    53   27   61 1
    54   27   30 1
    55   28   29 1
    56   28   62 1
    57   28   63 1
    58   29   64 1
    59   29   65 1
    60   30   31 2
    61   30   35 1
    62   31   32 1
    63   31   66 1
    64   32   33 2
    65   32   36 1
    66   33   35 1
    67   34   35 1
    68   36   41 ar
    69   36   37 ar
    70   37   38 ar
    71   37   67 1
    72   38   39 ar
    73   38   68 1
    74   39   40 ar
    75   40   41 ar
    76   40   69 1
    77   41   70 1
@<TRIPOS>MOLECULE
CHEMBL255360
   69    75     0     0     0
SMALL
USER_CHARGES

@<TRIPOS>ATOM
      1 C1         -0.0167    1.3791    0.0096 C.ar      1 <0>        -0.1099
      2 C2          1.1686    2.0924    0.0021 C.ar      1 <0>        -0.1107
      3 C3          2.3774    1.4269   -0.0135 C.ar      1 <0>        -0.1054
      4 C4          2.4026    0.0330   -0.0212 C.ar      1 <0>        -0.0464
      5 C5          1.2049   -0.6804   -0.0131 C.ar      1 <0>        -0.1007
      6 C6          0.0021   -0.0041    0.0020 C.ar      1 <0>        -0.1212
      7 C7          3.6978   -0.6876   -0.0384 C.ar      1 <0>        -0.1179
      8 C8          4.6777   -0.3464   -0.9613 C.ar      1 <0>         0.0052
      9 C9          5.8822   -1.0592   -0.9338 C.ar      1 <0>        -0.2484
     10 C10         6.9382   -0.7816   -1.8350 C.ar      1 <0>         0.4948
     11 N1          8.0479   -1.5039   -1.7418 N.ar      1 <0>        -0.5948
     12 C11         8.1732   -2.4588   -0.8351 C.ar      1 <0>         0.3861
     13 N2          7.2281   -2.7591    0.0241 N.ar      1 <0>        -0.5457
     14 C12         6.0635   -2.0923    0.0205 C.ar      1 <0>         0.3816
     15 N3          5.0935   -2.3829    0.8857 N.ar      1 <0>        -0.4570
     16 C13         3.9493   -1.7234    0.8867 C.ar      1 <0>         0.2412
     17 C14         2.9060   -2.0823    1.8752 C.ar      1 <0>        -0.0161
     18 C15         2.0789   -1.0949    2.4100 C.ar      1 <0>        -0.0774
     19 C16         1.1089   -1.4354    3.3304 C.ar      1 <0>        -0.1019
     20 C17         0.9560   -2.7531    3.7229 C.ar      1 <0>        -0.1489
     21 C18         1.7734   -3.7371    3.1960 C.ar      1 <0>        -0.0965
     22 C19         2.7431   -3.4098    2.2706 C.ar      1 <0>        -0.0692
     23 C20        -0.1050   -3.1181    4.7289 C.3       1 <0>         0.0432
     24 N4         -1.3556   -3.4379    4.0276 N.4       1 <0>        -0.3847
     25 C21        -1.8526   -2.2374    3.3447 C.3       1 <0>        -0.0093
     26 C22        -3.1110   -2.5843    2.5463 C.3       1 <0>        -0.1563
     27 C23        -4.1856   -3.1120    3.5014 C.3       1 <0>         0.1364
     28 C24        -3.6299   -4.3192    4.2624 C.3       1 <0>        -0.1587
     29 C25        -2.3522   -3.9080    4.9972 C.3       1 <0>        -0.0010
     30 N5         -5.3662   -3.5173    2.7346 N.pl3     1 <0>        -0.4762
     31 C26        -5.4092   -4.4761    1.7665 C.2       1 <0>         0.2363
     32 N6         -6.6177   -4.5776    1.2945 N.2       1 <0>        -0.4439
     33 C27        -7.4249   -3.6929    1.9278 C.ar      1 <0>        -0.1159
     34 C28        -6.6328   -3.0058    2.8633 C.ar      1 <0>         0.3107
     35 N7         -7.1958   -2.0751    3.6267 N.ar      1 <0>        -0.5694
     36 C29        -8.4782   -1.7998    3.5132 C.ar      1 <0>         0.3790
     37 N8         -9.2628   -2.4207    2.6517 N.ar      1 <0>        -0.5881
     38 C30        -8.7871   -3.3599    1.8403 C.ar      1 <0>         0.5153
     39 N9         -9.6176   -4.0059    0.9413 N.pl3     1 <0>        -0.8104
     40 N10         6.8171    0.2107   -2.7832 N.pl3     1 <0>        -0.8101
     41 H1         -0.9603    1.9042    0.0260 H         1 <0>         0.1262
     42 H2          1.1478    3.1722    0.0082 H         1 <0>         0.1301
     43 H3          3.3021    1.9848   -0.0200 H         1 <0>         0.1270
     44 H4          1.2183   -1.7603   -0.0194 H         1 <0>         0.1206
     45 H5         -0.9264   -0.5557    0.0079 H         1 <0>         0.1217
     46 H6          4.5154    0.4444   -1.6787 H         1 <0>         0.1455
     47 H7          9.0966   -3.0178   -0.8007 H         1 <0>         0.2089
     48 H8          2.1976   -0.0658    2.1046 H         1 <0>         0.1440
     49 H9          0.4681   -0.6716    3.7455 H         1 <0>         0.1356
     50 H10         1.6494   -4.7640    3.5066 H         1 <0>         0.1370
     51 H11         3.3775   -4.1795    1.8563 H         1 <0>         0.1446
     52 H12         0.2215   -3.9853    5.3030 H         1 <0>         0.1414
     53 H13        -0.2712   -2.2778    5.4029 H         1 <0>         0.1389
     54 H14        -2.0910   -1.4722    4.0835 H         1 <0>         0.1356
     55 H15        -1.0856   -1.8612    2.6678 H         1 <0>         0.1416
     56 H16        -3.4795   -1.6913    2.0415 H         1 <0>         0.1206
     57 H17        -2.8737   -3.3493    1.8070 H         1 <0>         0.0975
     58 H18        -4.4601   -2.3298    4.2091 H         1 <0>         0.1249
     59 H19        -4.3693   -4.6662    4.9842 H         1 <0>         0.1219
     60 H20        -3.4033   -5.1202    3.5587 H         1 <0>         0.0982
     61 H21        -1.9541   -4.7652    5.5402 H         1 <0>         0.1415
     62 H22        -2.5799   -3.1072    5.7007 H         1 <0>         0.1362
     63 H23        -4.5647   -5.0645    1.4393 H         1 <0>         0.2186
     64 H24        -8.9044   -1.0378    4.1489 H         1 <0>         0.2091
     65 H25        -9.2609   -4.6975    0.3622 H         1 <0>         0.4213
     66 H26       -10.5564   -3.7671    0.8903 H         1 <0>         0.4155
     67 H27         6.0000    0.7303   -2.8398 H         1 <0>         0.4141
     68 H28         7.5490    0.3897   -3.3941 H         1 <0>         0.4207
     69 H29        -1.1824   -4.1622    3.3468 H         1 <0>         0.4236
@<TRIPOS>BOND
     1    1    6 ar
     2    1    2 ar
     3    1   41 1
     4    2    3 ar
     5    2   42 1
     6    3    4 ar
     7    3   43 1
     8    4    5 ar
     9    4    7 1
    10    5    6 ar
    11    5   44 1
    12    6   45 1
    13    7   16 ar
    14    7    8 ar
    15    8    9 ar
    16    8   46 1
    17    9   14 ar
    18    9   10 ar
    19   10   11 ar
    20   10   40 1
    21   11   12 ar
    22   12   13 ar
    23   12   47 1
    24   13   14 ar
    25   14   15 ar
    26   15   16 ar
    27   16   17 1
    28   17   22 ar
    29   17   18 ar
    30   18   19 ar
    31   18   48 1
    32   19   20 ar
    33   19   49 1
    34   20   21 ar
    35   20   23 1
    36   21   22 ar
    37   21   50 1
    38   22   51 1
    39   23   24 1
    40   23   52 1
    41   23   53 1
    42   24   29 1
    43   24   25 1
    44   24   69 1
    45   25   26 1
    46   25   54 1
    47   25   55 1
    48   26   27 1
    49   26   56 1
    50   26   57 1
    51   27   28 1
    52   27   30 1
    53   27   58 1
    54   28   29 1
    55   28   59 1
    56   28   60 1
    57   29   61 1
    58   29   62 1
    59   30   34 1
    60   30   31 1
    61   31   32 2
    62   31   63 1
    63   32   33 1
    64   33   38 ar
    65   33   34 ar
    66   34   35 ar
    67   35   36 ar
    68   36   37 ar
    69   36   64 1
    70   37   38 ar
    71   38   39 1
    72   39   65 1
    73   39   66 1
    74   40   67 1
    75   40   68 1
@<TRIPOS>MOLECULE
CHEMBL402579
   72    78     0     0     0
SMALL
USER_CHARGES

@<TRIPOS>ATOM
      1 C1          0.2855   -3.2609    1.6121 C.3       1 <0>        -0.0833
      2 C2          0.1336   -2.0727    0.6976 C.2       1 <0>         0.2869
      3 N1          0.1763   -2.1221   -0.6019 N.2       1 <0>        -0.4797
      4 C3          0.0047   -0.8754   -1.1118 C.ar      1 <0>         0.0504
      5 C4         -0.0358   -0.3629   -2.4113 C.ar      1 <0>        -0.0546
      6 C5         -0.2290    0.9748   -2.6096 C.ar      1 <0>        -0.1244
      7 C6         -0.3858    1.8349   -1.5319 C.ar      1 <0>        -0.0911
      8 C7         -0.3493    1.3516   -0.2413 C.ar      1 <0>        -0.1247
      9 C8         -0.1544   -0.0051   -0.0203 C.ar      1 <0>         0.0464
     10 N2         -0.0739   -0.7932    1.1103 N.pl3     1 <0>        -0.4940
     11 C9         -0.1875   -0.3358    2.4974 C.3       1 <0>         0.1359
     12 C10        -1.5530    0.3243    2.7088 C.3       1 <0>        -0.1621
     13 C11        -1.6342    0.8700    4.1361 C.3       1 <0>        -0.0014
     14 N3         -0.5722    1.8612    4.3459 N.4       1 <0>        -0.3850
     15 C12         0.7413    1.2191    4.2155 C.3       1 <0>        -0.0089
     16 C13         0.9139    0.6868    2.7913 C.3       1 <0>        -0.1609
     17 C14        -0.7020    2.4386    5.6904 C.3       1 <0>         0.0431
     18 C15         0.3098    3.5421    5.8631 C.ar      1 <0>        -0.1486
     19 C16         1.5696    3.2508    6.3548 C.ar      1 <0>        -0.1029
     20 C17         2.5003    4.2568    6.5152 C.ar      1 <0>        -0.0695
     21 C18         2.1687    5.5695    6.1804 C.ar      1 <0>        -0.0161
     22 C19         0.8970    5.8568    5.6852 C.ar      1 <0>        -0.0760
     23 C20        -0.0232    4.8413    5.5240 C.ar      1 <0>        -0.0966
     24 C21         3.1631    6.6542    6.3506 C.ar      1 <0>         0.2410
     25 C22         3.1851    7.7229    5.4283 C.ar      1 <0>        -0.1172
     26 C23         4.1167    8.7398    5.5872 C.ar      1 <0>         0.0049
     27 C24         5.0019    8.6563    6.6690 C.ar      1 <0>        -0.2483
     28 C25         5.9846    9.6463    6.9109 C.ar      1 <0>         0.4948
     29 N4          6.7846    9.4922    7.9588 N.ar      1 <0>        -0.5947
     30 C26         6.6744    8.4460    8.7605 C.ar      1 <0>         0.3859
     31 N5          5.7831    7.4993    8.5842 N.ar      1 <0>        -0.5458
     32 C27         4.9223    7.5533    7.5560 C.ar      1 <0>         0.3813
     33 N6          4.0070    6.6044    7.3648 N.ar      1 <0>        -0.4570
     34 N7          6.1074   10.7394    6.0813 N.pl3     1 <0>        -0.8100
     35 C28         2.2232    7.7585    4.3010 C.ar      1 <0>        -0.0474
     36 C29         2.0560    6.6382    3.4881 C.ar      1 <0>        -0.1008
     37 C30         1.1591    6.6773    2.4401 C.ar      1 <0>        -0.1193
     38 C31         0.4267    7.8250    2.1954 C.ar      1 <0>        -0.1099
     39 C32         0.5886    8.9398    2.9983 C.ar      1 <0>        -0.1108
     40 C33         1.4781    8.9104    4.0530 C.ar      1 <0>        -0.1060
     41 H1         -0.7000   -3.6449    1.8756 H         1 <0>         0.0911
     42 H2          0.8551   -4.0394    1.1047 H         1 <0>         0.1035
     43 H3          0.8113   -2.9576    2.5175 H         1 <0>         0.0783
     44 H4          0.0858   -1.0232   -3.2572 H         1 <0>         0.1344
     45 H5         -0.2597    1.3670   -3.6154 H         1 <0>         0.1350
     46 H6         -0.5370    2.8901   -1.7054 H         1 <0>         0.1327
     47 H7         -0.4722    2.0252    0.5939 H         1 <0>         0.1117
     48 H8         -0.0843   -1.1864    3.1713 H         1 <0>         0.1201
     49 H9         -1.6757    1.1423    1.9988 H         1 <0>         0.0979
     50 H10        -2.3413   -0.4128    2.5556 H         1 <0>         0.1218
     51 H11        -2.6053    1.3405    4.2900 H         1 <0>         0.1404
     52 H12        -1.5117    0.0513    4.8451 H         1 <0>         0.1360
     53 H13         1.5240    1.9474    4.4281 H         1 <0>         0.1410
     54 H14         0.8132    0.3929    4.9229 H         1 <0>         0.1355
     55 H15         1.8890    0.2089    2.6970 H         1 <0>         0.1205
     56 H16         0.8424    1.5123    2.0830 H         1 <0>         0.0974
     57 H17        -1.7061    2.8433    5.8167 H         1 <0>         0.1407
     58 H18        -0.5259    1.6641    6.4370 H         1 <0>         0.1395
     59 H19         1.8252    2.2340    6.6141 H         1 <0>         0.1364
     60 H20         3.4834    4.0283    6.8995 H         1 <0>         0.1446
     61 H21         0.6344    6.8714    5.4245 H         1 <0>         0.1442
     62 H22        -1.0067    5.0618    5.1361 H         1 <0>         0.1356
     63 H23         4.1576    9.5698    4.8974 H         1 <0>         0.1457
     64 H24         7.3500    8.3670    9.5994 H         1 <0>         0.2089
     65 H25         5.5159   10.8386    5.3189 H         1 <0>         0.4141
     66 H26         6.7855   11.4098    6.2595 H         1 <0>         0.4207
     67 H27         2.6276    5.7418    3.6781 H         1 <0>         0.1198
     68 H28         1.0290    5.8102    1.8095 H         1 <0>         0.1225
     69 H29        -0.2741    7.8509    1.3740 H         1 <0>         0.1266
     70 H30         0.0144    9.8332    2.8023 H         1 <0>         0.1302
     71 H31         1.6002    9.7796    4.6822 H         1 <0>         0.1268
     72 H32        -0.6569    2.5943    3.6577 H         1 <0>         0.4228
@<TRIPOS>BOND
     1    1    2 1
     2    1   41 1
     3    1   42 1
     4    1   43 1
     5    2   10 1
     6    2    3 2
     7    3    4 1
     8    4    9 ar
     9    4    5 ar
    10    5    6 ar
    11    5   44 1
    12    6    7 ar
    13    6   45 1
    14    7    8 ar
    15    7   46 1
    16    8    9 ar
    17    8   47 1
    18    9   10 1
    19   10   11 1
    20   11   16 1
    21   11   12 1
    22   11   48 1
    23   12   13 1
    24   12   49 1
    25   12   50 1
    26   13   14 1
    27   13   51 1
    28   13   52 1
    29   14   15 1
    30   14   17 1
    31   14   72 1
    32   15   16 1
    33   15   53 1
    34   15   54 1
    35   16   55 1
    36   16   56 1
    37   17   18 1
    38   17   57 1
    39   17   58 1
    40   18   23 ar
    41   18   19 ar
    42   19   20 ar
    43   19   59 1
    44   20   21 ar
    45   20   60 1
    46   21   22 ar
    47   21   24 1
    48   22   23 ar
    49   22   61 1
    50   23   62 1
    51   24   33 ar
    52   24   25 ar
    53   25   26 ar
    54   25   35 1
    55   26   27 ar
    56   26   63 1
    57   27   32 ar
    58   27   28 ar
    59   28   29 ar
    60   28   34 1
    61   29   30 ar
    62   30   31 ar
    63   30   64 1
    64   31   32 ar
    65   32   33 ar
    66   34   65 1
    67   34   66 1
    68   35   40 ar
    69   35   36 ar
    70   36   37 ar
    71   36   67 1
    72   37   38 ar
    73   37   68 1
    74   38   39 ar
    75   38   69 1
    76   39   40 ar
    77   39   70 1
    78   40   71 1
@<TRIPOS>MOLECULE
CHEMBL402579
   73    79     0     0     0
SMALL
USER_CHARGES

@<TRIPOS>ATOM
      1 C1          0.2857   -3.2608    1.6121 C.3       1 <0>        -0.1284
      2 C2          0.1337   -2.0727    0.6976 C.cat     1 <0>         0.4038
      3 N1          0.1764   -2.1221   -0.6018 N.pl3     1 <0>        -0.4831
      4 C3          0.0047   -0.8754   -1.1119 C.ar      1 <0>         0.0460
      5 C4         -0.0359   -0.3629   -2.4113 C.ar      1 <0>        -0.0648
      6 C5         -0.2292    0.9747   -2.6096 C.ar      1 <0>        -0.0772
      7 C6         -0.3860    1.8348   -1.5319 C.ar      1 <0>        -0.0542
      8 C7         -0.3496    1.3516   -0.2413 C.ar      1 <0>        -0.1054
      9 C8         -0.1545   -0.0051   -0.0203 C.ar      1 <0>         0.0764
     10 N2         -0.0739   -0.7932    1.1103 N.pl3     1 <0>        -0.4397
     11 C9         -0.1875   -0.3358    2.4974 C.3       1 <0>         0.1229
     12 C10        -1.5530    0.3243    2.7088 C.3       1 <0>        -0.1639
     13 C11        -1.6342    0.8700    4.1361 C.3       1 <0>        -0.0025
     14 N3         -0.5722    1.8612    4.3459 N.4       1 <0>        -0.3877
     15 C12         0.7413    1.2191    4.2155 C.3       1 <0>        -0.0106
     16 C13         0.9139    0.6868    2.7913 C.3       1 <0>        -0.1632
     17 C14        -0.7020    2.4386    5.6904 C.3       1 <0>         0.0439
     18 C15         0.3098    3.5421    5.8631 C.ar      1 <0>        -0.1569
     19 C16         1.5696    3.2508    6.3548 C.ar      1 <0>        -0.1039
     20 C17         2.5003    4.2568    6.5152 C.ar      1 <0>        -0.0702
     21 C18         2.1687    5.5695    6.1804 C.ar      1 <0>        -0.0078
     22 C19         0.8970    5.8568    5.6852 C.ar      1 <0>        -0.0754
     23 C20        -0.0232    4.8413    5.5240 C.ar      1 <0>        -0.0951
     24 C21         3.1631    6.6542    6.3506 C.ar      1 <0>         0.2356
     25 C22         3.1851    7.7229    5.4283 C.ar      1 <0>        -0.1222
     26 C23         4.1167    8.7398    5.5872 C.ar      1 <0>         0.0081
     27 C24         5.0019    8.6563    6.6690 C.ar      1 <0>        -0.2478
     28 C25         5.9846    9.6463    6.9109 C.ar      1 <0>         0.4954
     29 N4          6.7846    9.4922    7.9588 N.ar      1 <0>        -0.5923
     30 C26         6.6744    8.4460    8.7605 C.ar      1 <0>         0.3897
     31 N5          5.7831    7.4993    8.5842 N.ar      1 <0>        -0.5466
     32 C27         4.9223    7.5533    7.5560 C.ar      1 <0>         0.3824
     33 N6          4.0070    6.6044    7.3648 N.ar      1 <0>        -0.4558
     34 N7          6.1074   10.7394    6.0813 N.pl3     1 <0>        -0.8084
     35 C28         2.2232    7.7585    4.3010 C.ar      1 <0>        -0.0442
     36 C29         2.0560    6.6382    3.4881 C.ar      1 <0>        -0.1036
     37 C30         1.1591    6.6773    2.4401 C.ar      1 <0>        -0.1222
     38 C31         0.4267    7.8250    2.1954 C.ar      1 <0>        -0.1115
     39 C32         0.5886    8.9398    2.9983 C.ar      1 <0>        -0.1083
     40 C33         1.4781    8.9104    4.0530 C.ar      1 <0>        -0.1041
     41 H1         -0.6997   -3.6450    1.8756 H         1 <0>         0.1338
     42 H2          0.8554   -4.0394    1.1047 H         1 <0>         0.1288
     43 H3          0.8115   -2.9575    2.5175 H         1 <0>         0.1212
     44 H4          0.0857   -1.0232   -3.2572 H         1 <0>         0.1578
     45 H5         -0.2600    1.3670   -3.6154 H         1 <0>         0.1618
     46 H6         -0.5373    2.8900   -1.7054 H         1 <0>         0.1596
     47 H7         -0.4725    2.0252    0.5939 H         1 <0>         0.1410
     48 H8         -0.0843   -1.1864    3.1713 H         1 <0>         0.1423
     49 H9         -1.6757    1.1423    1.9988 H         1 <0>         0.1037
     50 H10        -2.3413   -0.4128    2.5556 H         1 <0>         0.1298
     51 H11        -2.6053    1.3405    4.2900 H         1 <0>         0.1502
     52 H12        -1.5117    0.0513    4.8451 H         1 <0>         0.1421
     53 H13         1.5240    1.9474    4.4281 H         1 <0>         0.1510
     54 H14         0.8132    0.3929    4.9229 H         1 <0>         0.1417
     55 H15         1.8890    0.2089    2.6970 H         1 <0>         0.1286
     56 H16         0.8424    1.5123    2.0830 H         1 <0>         0.1034
     57 H17        -1.7061    2.8433    5.8167 H         1 <0>         0.1443
     58 H18        -0.5259    1.6641    6.4370 H         1 <0>         0.1421
     59 H19         1.8252    2.2340    6.6141 H         1 <0>         0.1356
     60 H20         3.4834    4.0283    6.8995 H         1 <0>         0.1459
     61 H21         0.6344    6.8714    5.4245 H         1 <0>         0.1455
     62 H22        -1.0067    5.0618    5.1361 H         1 <0>         0.1357
     63 H23         4.1576    9.5698    4.8974 H         1 <0>         0.1463
     64 H24         7.3500    8.3670    9.5994 H         1 <0>         0.2106
     65 H25         5.5159   10.8386    5.3189 H         1 <0>         0.4142
     66 H26         6.7855   11.4098    6.2595 H         1 <0>         0.4222
     67 H27         2.6276    5.7418    3.6781 H         1 <0>         0.1183
     68 H28         1.0290    5.8102    1.8095 H         1 <0>         0.1185
     69 H29        -0.2741    7.8509    1.3740 H         1 <0>         0.1261
     70 H30         0.0144    9.8332    2.8023 H         1 <0>         0.1318
     71 H31         1.6002    9.7796    4.6822 H         1 <0>         0.1287
     72 H32        -0.6569    2.5943    3.6577 H         1 <0>         0.4240
     73 H33         0.3104   -2.9269   -1.1264 H         1 <0>         0.4660
@<TRIPOS>BOND
     1    1    2 1
     2    1   41 1
     3    1   42 1
     4    1   43 1
     5    2   10 1
     6    2    3 2
     7    3    4 1
     8    3   73 1
     9    4    9 ar
    10    4    5 ar
    11    5    6 ar
    12    5   44 1
    13    6    7 ar
    14    6   45 1
    15    7    8 ar
    16    7   46 1
    17    8    9 ar
    18    8   47 1
    19    9   10 1
    20   10   11 1
    21   11   16 1
    22   11   12 1
    23   11   48 1
    24   12   13 1
    25   12   49 1
    26   12   50 1
    27   13   14 1
    28   13   51 1
    29   13   52 1
    30   14   15 1
    31   14   17 1
    32   14   72 1
    33   15   16 1
    34   15   53 1
    35   15   54 1
    36   16   55 1
    37   16   56 1
    38   17   18 1
    39   17   57 1
    40   17   58 1
    41   18   23 ar
    42   18   19 ar
    43   19   20 ar
    44   19   59 1
    45   20   21 ar
    46   20   60 1
    47   21   22 ar
    48   21   24 1
    49   22   23 ar
    50   22   61 1
    51   23   62 1
    52   24   33 ar
    53   24   25 ar
    54   25   26 ar
    55   25   35 1
    56   26   27 ar
    57   26   63 1
    58   27   32 ar
    59   27   28 ar
    60   28   29 ar
    61   28   34 1
    62   29   30 ar
    63   30   31 ar
    64   30   64 1
    65   31   32 ar
    66   32   33 ar
    67   34   65 1
    68   34   66 1
    69   35   40 ar
    70   35   36 ar
    71   36   37 ar
    72   36   67 1
    73   37   38 ar
    74   37   68 1
    75   38   39 ar
    76   38   69 1
    77   39   40 ar
    78   39   70 1
    79   40   71 1
@<TRIPOS>MOLECULE
CHEMBL259753
   70    76     0     0     0
SMALL
USER_CHARGES

@<TRIPOS>ATOM
      1 C1         -0.0167    1.3791    0.0096 C.ar      1 <0>        -0.1085
      2 C2          1.1686    2.0924    0.0021 C.ar      1 <0>        -0.1120
      3 C3          2.3774    1.4270   -0.0134 C.ar      1 <0>        -0.1011
      4 C4          2.4026    0.0330   -0.0211 C.ar      1 <0>        -0.0522
      5 C5          1.2048   -0.6804   -0.0130 C.ar      1 <0>        -0.0981
      6 C6          0.0021   -0.0041    0.0020 C.ar      1 <0>        -0.1224
      7 C7          3.6978   -0.6876   -0.0382 C.ar      1 <0>        -0.0760
      8 C8          4.6736   -0.3463   -0.9588 C.ar      1 <0>        -0.0249
      9 C9          5.8879   -1.0587   -0.9363 C.ar      1 <0>         0.0869
     10 C10         6.0624   -2.0898    0.0207 C.ar      1 <0>         0.0805
     11 C11         7.2812   -2.7981    0.0363 C.ar      1 <0>        -0.0420
     12 C12         8.2397   -2.4568   -0.8742 C.ar      1 <0>        -0.1525
     13 C13         8.0003   -1.4315   -1.7873 C.ar      1 <0>         0.1467
     14 N1          6.8660   -0.7742   -1.8006 N.ar      1 <0>        -0.4651
     15 N2          5.0907   -2.3816    0.8874 N.ar      1 <0>        -0.4452
     16 C14         3.9482   -1.7252    0.8895 C.ar      1 <0>         0.1912
     17 C15         2.9046   -2.0847    1.8779 C.ar      1 <0>        -0.0087
     18 C16         2.0771   -1.0977    2.4124 C.ar      1 <0>        -0.0821
     19 C17         1.1070   -1.4387    3.3326 C.ar      1 <0>        -0.0995
     20 C18         0.9548   -2.7564    3.7253 C.ar      1 <0>        -0.1506
     21 C19         1.7727   -3.7399    3.1985 C.ar      1 <0>        -0.0964
     22 C20         2.7423   -3.4121    2.2730 C.ar      1 <0>        -0.0764
     23 C21        -0.1060   -3.1219    4.7314 C.3       1 <0>         0.0434
     24 N3         -1.3564   -3.4425    4.0301 N.4       1 <0>        -0.3835
     25 C22        -1.8541   -2.2423    3.3471 C.3       1 <0>        -0.0113
     26 C23        -3.1124   -2.5901    2.5488 C.3       1 <0>        -0.1379
     27 C24        -4.1866   -3.1182    3.5039 C.3       1 <0>         0.0021
     28 C25        -3.6302   -4.3250    4.2650 C.3       1 <0>        -0.1401
     29 C26        -2.3527   -3.9130    4.9998 C.3       1 <0>        -0.0033
     30 C27        -5.4009   -3.5360    2.7152 C.2       1 <0>         0.2199
     31 N4         -6.6203   -3.0248    2.8508 N.2       1 <0>        -0.5190
     32 C28        -7.4464   -3.6131    2.0101 C.2       1 <0>         0.3519
     33 N5         -6.7406   -4.5309    1.3109 N.pl3     1 <0>        -0.4477
     34 H1         -7.0779   -5.1208    0.6187 H         1 <0>         0.4543
     35 N6         -5.4206   -4.4555    1.7845 N.2       1 <0>        -0.3001
     36 C29        -8.8897   -3.3222    1.8582 C.ar      1 <0>         0.1604
     37 C30        -9.4841   -2.3395    2.6490 C.ar      1 <0>        -0.1102
     38 C31       -10.8347   -2.0786    2.4950 C.ar      1 <0>        -0.0738
     39 C32       -11.5475   -2.8091    1.5548 C.ar      1 <0>        -0.1435
     40 C33       -10.8941   -3.7696    0.8039 C.ar      1 <0>         0.1096
     41 N7         -9.6068   -3.9950    0.9664 N.ar      1 <0>        -0.4750
     42 H2         -0.9603    1.9042    0.0260 H         1 <0>         0.1264
     43 H3          1.1478    3.1722    0.0081 H         1 <0>         0.1304
     44 H4          3.3021    1.9849   -0.0199 H         1 <0>         0.1286
     45 H5          1.2183   -1.7603   -0.0192 H         1 <0>         0.1204
     46 H6         -0.9264   -0.5557    0.0079 H         1 <0>         0.1226
     47 H7          4.5080    0.4448   -1.6751 H         1 <0>         0.1553
     48 H8          7.4525   -3.5902    0.7502 H         1 <0>         0.1511
     49 H9          9.1837   -2.9812   -0.8865 H         1 <0>         0.1520
     50 H10         8.7678   -1.1722   -2.5014 H         1 <0>         0.1720
     51 H11         2.1955   -0.0686    2.1071 H         1 <0>         0.1430
     52 H12         0.4654   -0.6752    3.7473 H         1 <0>         0.1351
     53 H13         1.6494   -4.7669    3.5092 H         1 <0>         0.1352
     54 H14         3.3771   -4.1815    1.8588 H         1 <0>         0.1408
     55 H15         0.2210   -3.9888    5.3056 H         1 <0>         0.1387
     56 H16        -0.2726   -2.2815    5.4053 H         1 <0>         0.1375
     57 H17        -2.0929   -1.4772    4.0857 H         1 <0>         0.1331
     58 H18        -1.0873   -1.8658    2.6701 H         1 <0>         0.1366
     59 H19        -3.4814   -1.6973    2.0439 H         1 <0>         0.1152
     60 H20        -2.8746   -3.3550    1.8096 H         1 <0>         0.0960
     61 H21        -4.4615   -2.3361    4.2116 H         1 <0>         0.1175
     62 H22        -4.3693   -4.6724    4.9869 H         1 <0>         0.1163
     63 H23        -3.4032   -5.1260    3.5615 H         1 <0>         0.0966
     64 H24        -1.9541   -4.7699    5.5429 H         1 <0>         0.1358
     65 H25        -2.5809   -3.1123    5.7032 H         1 <0>         0.1338
     66 H26        -8.8991   -1.7901    3.3716 H         1 <0>         0.1515
     67 H27       -11.3229   -1.3237    3.0934 H         1 <0>         0.1489
     68 H28       -12.6027   -2.6296    1.4109 H         1 <0>         0.1481
     69 H29       -11.4464   -4.3399    0.0717 H         1 <0>         0.1699
     70 H30        -1.1828   -4.1668    3.3494 H         1 <0>         0.4234
@<TRIPOS>BOND
     1    1    6 ar
     2    1    2 ar
     3    1   42 1
     4    2    3 ar
     5    2   43 1
     6    3    4 ar
     7    3   44 1
     8    4    5 ar
     9    4    7 1
    10    5    6 ar
    11    5   45 1
    12    6   46 1
    13    7   16 ar
    14    7    8 ar
    15    8    9 ar
    16    8   47 1
    17    9   14 ar
    18    9   10 ar
    19   10   11 ar
    20   10   15 ar
    21   11   12 ar
    22   11   48 1
    23   12   13 ar
    24   12   49 1
    25   13   14 ar
    26   13   50 1
    27   15   16 ar
    28   16   17 1
    29   17   22 ar
    30   17   18 ar
    31   18   19 ar
    32   18   51 1
    33   19   20 ar
    34   19   52 1
    35   20   21 ar
    36   20   23 1
    37   21   22 ar
    38   21   53 1
    39   22   54 1
    40   23   24 1
    41   23   55 1
    42   23   56 1
    43   24   29 1
    44   24   25 1
    45   24   70 1
    46   25   26 1
    47   25   57 1
    48   25   58 1
    49   26   27 1
    50   26   59 1
    51   26   60 1
    52   27   28 1
    53   27   30 1
    54   27   61 1
    55   28   29 1
    56   28   62 1
    57   28   63 1
    58   29   64 1
    59   29   65 1
    60   30   35 2
    61   30   31 1
    62   31   32 2
    63   32   33 1
    64   32   36 1
    65   33   34 1
    66   33   35 1
    67   36   41 ar
    68   36   37 ar
    69   37   38 ar
    70   37   66 1
    71   38   39 ar
    72   38   67 1
    73   39   40 ar
    74   39   68 1
    75   40   41 ar
    76   40   69 1
@<TRIPOS>MOLECULE
CHEMBL259753
   70    76     0     0     0
SMALL
USER_CHARGES

@<TRIPOS>ATOM
      1 C1         -0.0167    1.3791    0.0096 C.ar      1 <0>        -0.1078
      2 C2          1.1686    2.0924    0.0021 C.ar      1 <0>        -0.1114
      3 C3          2.3774    1.4270   -0.0134 C.ar      1 <0>        -0.1008
      4 C4          2.4026    0.0330   -0.0211 C.ar      1 <0>        -0.0526
      5 C5          1.2048   -0.6804   -0.0130 C.ar      1 <0>        -0.0990
      6 C6          0.0021   -0.0041    0.0020 C.ar      1 <0>        -0.1227
      7 C7          3.6978   -0.6876   -0.0382 C.ar      1 <0>        -0.0760
      8 C8          4.6736   -0.3463   -0.9588 C.ar      1 <0>        -0.0246
      9 C9          5.8879   -1.0587   -0.9363 C.ar      1 <0>         0.0874
     10 C10         6.0624   -2.0898    0.0207 C.ar      1 <0>         0.0803
     11 C11         7.2812   -2.7981    0.0363 C.ar      1 <0>        -0.0420
     12 C12         8.2397   -2.4568   -0.8742 C.ar      1 <0>        -0.1522
     13 C13         8.0003   -1.4315   -1.7873 C.ar      1 <0>         0.1472
     14 N1          6.8660   -0.7742   -1.8006 N.ar      1 <0>        -0.4650
     15 N2          5.0907   -2.3816    0.8874 N.ar      1 <0>        -0.4450
     16 C14         3.9482   -1.7252    0.8895 C.ar      1 <0>         0.1897
     17 C15         2.9046   -2.0847    1.8779 C.ar      1 <0>        -0.0067
     18 C16         2.0771   -1.0977    2.4124 C.ar      1 <0>        -0.0816
     19 C17         1.1070   -1.4387    3.3326 C.ar      1 <0>        -0.0992
     20 C18         0.9548   -2.7564    3.7253 C.ar      1 <0>        -0.1527
     21 C19         1.7727   -3.7399    3.1985 C.ar      1 <0>        -0.0966
     22 C20         2.7423   -3.4121    2.2730 C.ar      1 <0>        -0.0769
     23 C21        -0.1060   -3.1219    4.7314 C.3       1 <0>         0.0437
     24 N3         -1.3564   -3.4425    4.0301 N.4       1 <0>        -0.3845
     25 C22        -1.8541   -2.2423    3.3471 C.3       1 <0>        -0.0124
     26 C23        -3.1124   -2.5901    2.5488 C.3       1 <0>        -0.1384
     27 C24        -4.1866   -3.1182    3.5039 C.3       1 <0>        -0.0161
     28 C25        -3.6302   -4.3250    4.2650 C.3       1 <0>        -0.1490
     29 C26        -2.3527   -3.9130    4.9998 C.3       1 <0>        -0.0022
     30 C27        -5.4009   -3.5360    2.7152 C.2       1 <0>         0.2712
     31 N4         -6.4551   -2.7992    2.4860 N.2       1 <0>        -0.4883
     32 C28        -7.3393   -3.4885    1.7522 C.2       1 <0>         0.2883
     33 N5         -6.8450   -4.6825    1.5081 N.2       1 <0>        -0.2781
     34 H1         -4.9640   -5.4770    2.1193 H         1 <0>         0.4404
     35 N6         -5.5826   -4.7298    2.1215 N.pl3     1 <0>        -0.4754
     36 C29        -8.6578   -2.9878    1.2917 C.ar      1 <0>         0.1848
     37 C30        -9.4857   -3.8154    0.5360 C.ar      1 <0>        -0.1315
     38 C31       -10.7129   -3.3346    0.1140 C.ar      1 <0>        -0.0745
     39 C32       -11.0725   -2.0401    0.4621 C.ar      1 <0>        -0.1510
     40 C33       -10.2019   -1.2736    1.2143 C.ar      1 <0>         0.1034
     41 N7         -9.0412   -1.7578    1.6075 N.ar      1 <0>        -0.4470
     42 H2         -0.9603    1.9042    0.0260 H         1 <0>         0.1272
     43 H3          1.1478    3.1722    0.0081 H         1 <0>         0.1309
     44 H4          3.3021    1.9849   -0.0199 H         1 <0>         0.1287
     45 H5          1.2183   -1.7603   -0.0192 H         1 <0>         0.1197
     46 H6         -0.9264   -0.5557    0.0079 H         1 <0>         0.1223
     47 H7          4.5080    0.4448   -1.6751 H         1 <0>         0.1555
     48 H8          7.4525   -3.5902    0.7502 H         1 <0>         0.1511
     49 H9          9.1837   -2.9812   -0.8865 H         1 <0>         0.1522
     50 H10         8.7678   -1.1722   -2.5014 H         1 <0>         0.1723
     51 H11         2.1955   -0.0686    2.1071 H         1 <0>         0.1436
     52 H12         0.4654   -0.6752    3.7473 H         1 <0>         0.1355
     53 H13         1.6494   -4.7669    3.5092 H         1 <0>         0.1348
     54 H14         3.3771   -4.1815    1.8588 H         1 <0>         0.1410
     55 H15         0.2210   -3.9888    5.3056 H         1 <0>         0.1395
     56 H16        -0.2726   -2.2815    5.4053 H         1 <0>         0.1387
     57 H17        -2.0929   -1.4772    4.0857 H         1 <0>         0.1367
     58 H18        -1.0873   -1.8658    2.6701 H         1 <0>         0.1395
     59 H19        -3.4814   -1.6973    2.0439 H         1 <0>         0.1244
     60 H20        -2.8746   -3.3550    1.8096 H         1 <0>         0.0898
     61 H21        -4.4615   -2.3361    4.2116 H         1 <0>         0.1306
     62 H22        -4.3693   -4.6724    4.9869 H         1 <0>         0.1233
     63 H23        -3.4032   -5.1260    3.5615 H         1 <0>         0.0881
     64 H24        -1.9541   -4.7699    5.5429 H         1 <0>         0.1389
     65 H25        -2.5809   -3.1123    5.7032 H         1 <0>         0.1376
     66 H26        -9.1739   -4.8179    0.2828 H         1 <0>         0.1436
     67 H27       -11.3758   -3.9527   -0.4733 H         1 <0>         0.1455
     68 H28       -12.0232   -1.6352    0.1480 H         1 <0>         0.1449
     69 H29       -10.4786   -0.2659    1.4869 H         1 <0>         0.1668
     70 H30        -1.1828   -4.1668    3.3494 H         1 <0>         0.4220
@<TRIPOS>BOND
     1    1    6 ar
     2    1    2 ar
     3    1   42 1
     4    2    3 ar
     5    2   43 1
     6    3    4 ar
     7    3   44 1
     8    4    5 ar
     9    4    7 1
    10    5    6 ar
    11    5   45 1
    12    6   46 1
    13    7   16 ar
    14    7    8 ar
    15    8    9 ar
    16    8   47 1
    17    9   14 ar
    18    9   10 ar
    19   10   11 ar
    20   10   15 ar
    21   11   12 ar
    22   11   48 1
    23   12   13 ar
    24   12   49 1
    25   13   14 ar
    26   13   50 1
    27   15   16 ar
    28   16   17 1
    29   17   22 ar
    30   17   18 ar
    31   18   19 ar
    32   18   51 1
    33   19   20 ar
    34   19   52 1
    35   20   21 ar
    36   20   23 1
    37   21   22 ar
    38   21   53 1
    39   22   54 1
    40   23   24 1
    41   23   55 1
    42   23   56 1
    43   24   29 1
    44   24   25 1
    45   24   70 1
    46   25   26 1
    47   25   57 1
    48   25   58 1
    49   26   27 1
    50   26   59 1
    51   26   60 1
    52   27   28 1
    53   27   61 1
    54   27   30 1
    55   28   29 1
    56   28   62 1
    57   28   63 1
    58   29   64 1
    59   29   65 1
    60   30   31 2
    61   30   35 1
    62   31   32 1
    63   32   36 1
    64   32   33 2
    65   33   35 1
    66   34   35 1
    67   36   41 ar
    68   36   37 ar
    69   37   38 ar
    70   37   66 1
    71   38   39 ar
    72   38   67 1
    73   39   40 ar
    74   39   68 1
    75   40   41 ar
    76   40   69 1
@<TRIPOS>MOLECULE
CHEMBL470598
   54    57     0     0     0
SMALL
USER_CHARGES

@<TRIPOS>ATOM
      1 C1         -0.2011    0.7877   -1.7735 C.2       1 <0>        -0.2122
      2 C2          1.0307    1.0169   -2.2602 C.2       1 <0>         0.0883
      3 N1          1.9240    0.1502   -1.6910 N.pl3     1 <0>        -0.5767
      4 H1          2.8741    0.1236   -1.8845 H         1 <0>         0.4274
      5 C3          1.2763   -0.6769   -0.8042 C.ar      1 <0>         0.2904
      6 C4         -0.0823   -0.3115   -0.8193 C.ar      1 <0>        -0.1242
      7 C5         -0.9922   -1.0029    0.0055 C.ar      1 <0>         0.0346
      8 C6         -0.4906   -2.0319    0.8084 C.ar      1 <0>        -0.1467
      9 C7          0.8590   -2.3265    0.7623 C.ar      1 <0>         0.1426
     10 N2          1.6874   -1.6634   -0.0182 N.ar      1 <0>        -0.4753
     11 C8         -2.4246   -0.6527    0.0215 C.2       1 <0>        -0.0154
     12 C9         -3.5275   -1.4903   -0.0615 C.2       1 <0>        -0.1493
     13 C10        -4.7765   -0.9367   -0.0262 C.2       1 <0>        -0.0197
     14 C11        -4.8916    0.4412    0.0913 C.2       1 <0>        -0.2776
     15 S1         -3.1840    0.9570    0.1604 S.3       1 <0>         0.1744
     16 C12        -6.1045    1.2621    0.1495 C.2       1 <0>         0.6115
     17 O1         -7.1998    0.7345    0.0929 O.2       1 <0>        -0.5347
     18 N3         -6.0068    2.6013    0.2658 N.am      1 <0>        -0.7304
     19 C13        -7.2190    3.4218    0.3241 C.3       1 <0>         0.1149
     20 H2         -7.9983    2.8812    0.8612 H         1 <0>         0.1247
     21 C14        -6.9133    4.7324    1.0519 C.3       1 <0>        -0.1243
     22 C15        -6.5555    4.4349    2.5094 C.3       1 <0>        -0.0876
     23 C16        -7.7749    3.8496    3.2247 C.3       1 <0>        -0.1172
     24 C17        -7.4171    3.5521    4.6822 C.3       1 <0>        -0.1213
     25 C18        -6.9909    4.8467    5.3772 C.3       1 <0>        -0.1233
     26 C19        -5.7715    5.4320    4.6620 C.3       1 <0>        -0.1222
     27 C20        -6.1293    5.7296    3.2045 C.3       1 <0>        -0.1145
     28 C21        -7.6970    3.7271   -1.0969 C.3       1 <0>        -0.0228
     29 N4         -7.8760    2.4692   -1.8342 N.4       1 <0>        -0.6350
     30 Br1        -3.3069   -3.3616   -0.2210 Br        1 <0>         0.0013
     31 H3         -1.1050    1.3181   -2.0346 H         1 <0>         0.1487
     32 H4          1.2785    1.7721   -2.9914 H         1 <0>         0.1855
     33 H5         -1.1498   -2.5896    1.4571 H         1 <0>         0.1469
     34 H6          1.2448   -3.1215    1.3832 H         1 <0>         0.1741
     35 H7         -5.6567   -1.5594   -0.0888 H         1 <0>         0.1600
     36 H8         -5.1338    3.0218    0.3109 H         1 <0>         0.4157
     37 H9         -6.0742    5.2306    0.5662 H         1 <0>         0.0846
     38 H10        -7.7894    5.3799    1.0178 H         1 <0>         0.0975
     39 H11        -5.7355    3.7175    2.5431 H         1 <0>         0.0742
     40 H12        -8.5948    4.5670    3.1910 H         1 <0>         0.0669
     41 H13        -8.0785    2.9273    2.7295 H         1 <0>         0.0582
     42 H14        -8.2858    3.1351    5.1917 H         1 <0>         0.0651
     43 H15        -6.5971    2.8347    4.7158 H         1 <0>         0.0608
     44 H16        -7.8108    5.5641    5.3435 H         1 <0>         0.0635
     45 H17        -6.7360    4.6348    6.4156 H         1 <0>         0.0651
     46 H18        -5.4679    6.3544    5.1572 H         1 <0>         0.0668
     47 H19        -4.9515    4.7146    4.6957 H         1 <0>         0.0618
     48 H20        -5.2606    6.1465    2.6950 H         1 <0>         0.0642
     49 H21        -6.9493    6.4469    3.1708 H         1 <0>         0.0665
     50 H22        -8.6461    4.2614   -1.0541 H         1 <0>         0.1501
     51 H23        -6.9556    4.3437   -1.6050 H         1 <0>         0.1384
     52 H24        -6.9974    1.9747   -1.8739 H         1 <0>         0.4264
     53 H25        -8.5623    1.8985   -1.3639 H         1 <0>         0.4424
     54 H26        -8.1912    2.6706   -2.7713 H         1 <0>         0.4365
@<TRIPOS>BOND
     1    1    6 1
     2    1    2 2
     3    1   31 1
     4    2    3 1
     5    2   32 1
     6    3    4 1
     7    3    5 1
     8    5   10 ar
     9    5    6 ar
    10    6    7 ar
    11    7    8 ar
    12    7   11 1
    13    8    9 ar
    14    8   33 1
    15    9   10 ar
    16    9   34 1
    17   11   15 1
    18   11   12 2
    19   12   13 1
    20   12   30 1
    21   13   14 2
    22   13   35 1
    23   14   15 1
    24   14   16 1
    25   16   17 2
    26   16   18 am
    27   18   19 1
    28   18   36 1
    29   19   20 1
    30   19   21 1
    31   19   28 1
    32   21   22 1
    33   21   37 1
    34   21   38 1
    35   22   27 1
    36   22   23 1
    37   22   39 1
    38   23   24 1
    39   23   40 1
    40   23   41 1
    41   24   25 1
    42   24   42 1
    43   24   43 1
    44   25   26 1
    45   25   44 1
    46   25   45 1
    47   26   27 1
    48   26   46 1
    49   26   47 1
    50   27   48 1
    51   27   49 1
    52   28   29 1
    53   28   50 1
    54   28   51 1
    55   29   52 1
    56   29   53 1
    57   29   54 1
@<TRIPOS>MOLECULE
CHEMBL259967
   70    76     0     0     0
SMALL
USER_CHARGES

@<TRIPOS>ATOM
      1 C1         -0.0167    1.3791    0.0096 C.ar      1 <0>        -0.1093
      2 C2          1.1686    2.0924    0.0021 C.ar      1 <0>        -0.1117
      3 C3          2.3774    1.4269   -0.0134 C.ar      1 <0>        -0.1033
      4 C4          2.4026    0.0330   -0.0211 C.ar      1 <0>        -0.0506
      5 C5          1.2049   -0.6804   -0.0130 C.ar      1 <0>        -0.0996
      6 C6          0.0021   -0.0041    0.0020 C.ar      1 <0>        -0.1218
      7 C7          3.6978   -0.6877   -0.0382 C.ar      1 <0>        -0.0981
      8 C8          4.6745   -0.3459   -0.9599 C.ar      1 <0>        -0.0131
      9 C9          5.8844   -1.0600   -0.9340 C.ar      1 <0>        -0.1608
     10 C10         6.9290   -0.7819   -1.8291 C.ar      1 <0>         0.1653
     11 N1          8.0435   -1.4738   -1.7697 N.ar      1 <0>        -0.4787
     12 C11         8.2362   -2.4439   -0.8867 C.ar      1 <0>         0.1023
     13 C12         7.2846   -2.7901    0.0234 C.ar      1 <0>        -0.1435
     14 C13         6.0604   -2.0937    0.0241 C.ar      1 <0>         0.1618
     15 N2          5.0902   -2.3845    0.8897 N.ar      1 <0>        -0.4593
     16 C14         3.9479   -1.7247    0.8892 C.ar      1 <0>         0.2129
     17 C15         2.9030   -2.0825    1.8767 C.ar      1 <0>        -0.0144
     18 C16         2.0759   -1.0943    2.4098 C.ar      1 <0>        -0.0800
     19 C17         1.1046   -1.4336    3.3292 C.ar      1 <0>        -0.1003
     20 C18         0.9506   -2.7510    3.7226 C.ar      1 <0>        -0.1484
     21 C19         1.7680   -3.7357    3.1972 C.ar      1 <0>        -0.0969
     22 C20         2.7388   -3.4096    2.2725 C.ar      1 <0>        -0.0741
     23 C21        -0.1116   -3.1147    4.7278 C.3       1 <0>         0.0430
     24 N3         -1.3616   -3.4344    4.0255 N.4       1 <0>        -0.3835
     25 C22        -1.8574   -2.2341    3.3412 C.3       1 <0>        -0.0113
     26 C23        -3.1152   -2.5810    2.5419 C.3       1 <0>        -0.1378
     27 C24        -4.1909   -3.1074    3.4963 C.3       1 <0>         0.0022
     28 C25        -3.6366   -4.3143    4.2587 C.3       1 <0>        -0.1401
     29 C26        -2.3595   -3.9032    4.9944 C.3       1 <0>        -0.0034
     30 C27        -5.4049   -3.5243    2.7066 C.2       1 <0>         0.2197
     31 N4         -6.6239   -3.0117    2.8407 N.2       1 <0>        -0.5189
     32 C28        -7.4498   -3.5997    1.9995 C.2       1 <0>         0.3520
     33 N5         -6.7443   -4.5187    1.3016 N.pl3     1 <0>        -0.4476
     34 H1         -7.0815   -5.1086    0.6094 H         1 <0>         0.4543
     35 N6         -5.4247   -4.4444    1.7764 N.2       1 <0>        -0.3002
     36 C29        -8.8926   -3.3073    1.8460 C.ar      1 <0>         0.1603
     37 C30        -9.4868   -2.3235    2.6356 C.ar      1 <0>        -0.1102
     38 C31       -10.8369   -2.0612    2.4801 C.ar      1 <0>        -0.0737
     39 C32       -11.5496   -2.7915    1.5396 C.ar      1 <0>        -0.1433
     40 C33       -10.8965   -3.7532    0.7900 C.ar      1 <0>         0.1095
     41 N7         -9.6095   -3.9799    0.9538 N.ar      1 <0>        -0.4749
     42 H2         -0.9603    1.9042    0.0260 H         1 <0>         0.1263
     43 H3          1.1478    3.1722    0.0081 H         1 <0>         0.1302
     44 H4          3.3021    1.9848   -0.0199 H         1 <0>         0.1282
     45 H5          1.2183   -1.7603   -0.0189 H         1 <0>         0.1198
     46 H6         -0.9264   -0.5557    0.0079 H         1 <0>         0.1224
     47 H7          4.5107    0.4452   -1.6767 H         1 <0>         0.1542
     48 H8          6.8163   -0.0003   -2.5659 H         1 <0>         0.1719
     49 H9          9.1761   -2.9758   -0.8897 H         1 <0>         0.1664
     50 H10         7.4655   -3.5842    0.7326 H         1 <0>         0.1502
     51 H11         2.1957   -0.0654    2.1040 H         1 <0>         0.1433
     52 H12         0.4635   -0.6692    3.7428 H         1 <0>         0.1354
     53 H13         1.6430   -4.7624    3.5081 H         1 <0>         0.1358
     54 H14         3.3732   -4.1799    1.8594 H         1 <0>         0.1414
     55 H15         0.2139   -3.9816    5.3029 H         1 <0>         0.1391
     56 H16        -0.2780   -2.2737    5.4010 H         1 <0>         0.1378
     57 H17        -2.0961   -1.4682    4.0792 H         1 <0>         0.1332
     58 H18        -1.0895   -1.8588    2.6648 H         1 <0>         0.1363
     59 H19        -3.4827   -1.6881    2.0360 H         1 <0>         0.1152
     60 H20        -2.8775   -3.3466    1.8034 H         1 <0>         0.0960
     61 H21        -4.4657   -2.3245    4.2032 H         1 <0>         0.1175
     62 H22        -4.3769   -4.6604    4.9800 H         1 <0>         0.1165
     63 H23        -3.4098   -5.1160    3.5558 H         1 <0>         0.0966
     64 H24        -1.9623   -4.7602    5.5385 H         1 <0>         0.1360
     65 H25        -2.5875   -3.1018    5.6972 H         1 <0>         0.1339
     66 H26        -8.9019   -1.7742    3.3585 H         1 <0>         0.1515
     67 H27       -11.3249   -1.3054    3.0775 H         1 <0>         0.1489
     68 H28       -12.6045   -2.6109    1.3946 H         1 <0>         0.1482
     69 H29       -11.4486   -4.3233    0.0575 H         1 <0>         0.1699
     70 H30        -1.1882   -4.1593    3.3454 H         1 <0>         0.4235
@<TRIPOS>BOND
     1    1    6 ar
     2    1    2 ar
     3    1   42 1
     4    2    3 ar
     5    2   43 1
     6    3    4 ar
     7    3   44 1
     8    4    5 ar
     9    4    7 1
    10    5    6 ar
    11    5   45 1
    12    6   46 1
    13    7   16 ar
    14    7    8 ar
    15    8    9 ar
    16    8   47 1
    17    9   14 ar
    18    9   10 ar
    19   10   11 ar
    20   10   48 1
    21   11   12 ar
    22   12   13 ar
    23   12   49 1
    24   13   14 ar
    25   13   50 1
    26   14   15 ar
    27   15   16 ar
    28   16   17 1
    29   17   22 ar
    30   17   18 ar
    31   18   19 ar
    32   18   51 1
    33   19   20 ar
    34   19   52 1
    35   20   21 ar
    36   20   23 1
    37   21   22 ar
    38   21   53 1
    39   22   54 1
    40   23   24 1
    41   23   55 1
    42   23   56 1
    43   24   29 1
    44   24   25 1
    45   24   70 1
    46   25   26 1
    47   25   57 1
    48   25   58 1
    49   26   27 1
    50   26   59 1
    51   26   60 1
    52   27   28 1
    53   27   30 1
    54   27   61 1
    55   28   29 1
    56   28   62 1
    57   28   63 1
    58   29   64 1
    59   29   65 1
    60   30   35 2
    61   30   31 1
    62   31   32 2
    63   32   33 1
    64   32   36 1
    65   33   34 1
    66   33   35 1
    67   36   41 ar
    68   36   37 ar
    69   37   38 ar
    70   37   66 1
    71   38   39 ar
    72   38   67 1
    73   39   40 ar
    74   39   68 1
    75   40   41 ar
    76   40   69 1
@<TRIPOS>MOLECULE
CHEMBL259967
   70    76     0     0     0
SMALL
USER_CHARGES

@<TRIPOS>ATOM
      1 C1         -0.0167    1.3791    0.0096 C.ar      1 <0>        -0.1086
      2 C2          1.1686    2.0924    0.0021 C.ar      1 <0>        -0.1111
      3 C3          2.3774    1.4269   -0.0134 C.ar      1 <0>        -0.1030
      4 C4          2.4026    0.0330   -0.0211 C.ar      1 <0>        -0.0510
      5 C5          1.2049   -0.6804   -0.0130 C.ar      1 <0>        -0.1005
      6 C6          0.0021   -0.0041    0.0020 C.ar      1 <0>        -0.1221
      7 C7          3.6978   -0.6877   -0.0382 C.ar      1 <0>        -0.0981
      8 C8          4.6745   -0.3459   -0.9599 C.ar      1 <0>        -0.0127
      9 C9          5.8844   -1.0600   -0.9340 C.ar      1 <0>        -0.1605
     10 C10         6.9290   -0.7819   -1.8291 C.ar      1 <0>         0.1655
     11 N1          8.0435   -1.4738   -1.7697 N.ar      1 <0>        -0.4783
     12 C11         8.2362   -2.4439   -0.8867 C.ar      1 <0>         0.1028
     13 C12         7.2846   -2.7901    0.0234 C.ar      1 <0>        -0.1437
     14 C13         6.0604   -2.0937    0.0241 C.ar      1 <0>         0.1617
     15 N2          5.0902   -2.3845    0.8897 N.ar      1 <0>        -0.4591
     16 C14         3.9479   -1.7247    0.8892 C.ar      1 <0>         0.2116
     17 C15         2.9030   -2.0825    1.8767 C.ar      1 <0>        -0.0125
     18 C16         2.0759   -1.0943    2.4098 C.ar      1 <0>        -0.0795
     19 C17         1.1046   -1.4336    3.3292 C.ar      1 <0>        -0.1001
     20 C18         0.9506   -2.7510    3.7226 C.ar      1 <0>        -0.1506
     21 C19         1.7680   -3.7357    3.1972 C.ar      1 <0>        -0.0971
     22 C20         2.7388   -3.4096    2.2725 C.ar      1 <0>        -0.0746
     23 C21        -0.1116   -3.1147    4.7278 C.3       1 <0>         0.0433
     24 N3         -1.3616   -3.4344    4.0255 N.4       1 <0>        -0.3845
     25 C22        -1.8574   -2.2341    3.3412 C.3       1 <0>        -0.0124
     26 C23        -3.1152   -2.5810    2.5419 C.3       1 <0>        -0.1383
     27 C24        -4.1909   -3.1074    3.4963 C.3       1 <0>        -0.0160
     28 C25        -3.6366   -4.3143    4.2587 C.3       1 <0>        -0.1490
     29 C26        -2.3595   -3.9032    4.9944 C.3       1 <0>        -0.0023
     30 C27        -5.4049   -3.5243    2.7066 C.2       1 <0>         0.2711
     31 N4         -6.4581   -2.7866    2.4759 N.2       1 <0>        -0.4884
     32 C28        -7.3424   -3.4753    1.7416 C.2       1 <0>         0.2883
     33 N5         -6.8491   -4.6700    1.4988 N.2       1 <0>        -0.2780
     34 H1         -4.9695   -5.4661    2.1123 H         1 <0>         0.4404
     35 N6         -5.5873   -4.7183    2.1134 N.pl3     1 <0>        -0.4754
     36 C29        -8.6599   -2.9735    1.2795 C.ar      1 <0>         0.1846
     37 C30        -9.4878   -3.8006    0.5235 C.ar      1 <0>        -0.1315
     38 C31       -10.7141   -3.3188    0.1000 C.ar      1 <0>        -0.0745
     39 C32       -11.0726   -2.0236    0.4469 C.ar      1 <0>        -0.1509
     40 C33       -10.2019   -1.2577    1.1995 C.ar      1 <0>         0.1034
     41 N7         -9.0422   -1.7428    1.5942 N.ar      1 <0>        -0.4470
     42 H2         -0.9603    1.9042    0.0260 H         1 <0>         0.1271
     43 H3          1.1478    3.1722    0.0081 H         1 <0>         0.1307
     44 H4          3.3021    1.9848   -0.0199 H         1 <0>         0.1284
     45 H5          1.2183   -1.7603   -0.0189 H         1 <0>         0.1191
     46 H6         -0.9264   -0.5557    0.0079 H         1 <0>         0.1220
     47 H7          4.5107    0.4452   -1.6767 H         1 <0>         0.1544
     48 H8          6.8163   -0.0003   -2.5659 H         1 <0>         0.1722
     49 H9          9.1761   -2.9758   -0.8897 H         1 <0>         0.1666
     50 H10         7.4655   -3.5842    0.7326 H         1 <0>         0.1502
     51 H11         2.1957   -0.0654    2.1040 H         1 <0>         0.1439
     52 H12         0.4635   -0.6692    3.7428 H         1 <0>         0.1359
     53 H13         1.6430   -4.7624    3.5081 H         1 <0>         0.1354
     54 H14         3.3732   -4.1799    1.8594 H         1 <0>         0.1415
     55 H15         0.2139   -3.9816    5.3029 H         1 <0>         0.1399
     56 H16        -0.2780   -2.2737    5.4010 H         1 <0>         0.1390
     57 H17        -2.0961   -1.4682    4.0792 H         1 <0>         0.1368
     58 H18        -1.0895   -1.8588    2.6648 H         1 <0>         0.1392
     59 H19        -3.4827   -1.6881    2.0360 H         1 <0>         0.1245
     60 H20        -2.8775   -3.3466    1.8034 H         1 <0>         0.0898
     61 H21        -4.4657   -2.3245    4.2032 H         1 <0>         0.1306
     62 H22        -4.3769   -4.6604    4.9800 H         1 <0>         0.1235
     63 H23        -3.4098   -5.1160    3.5558 H         1 <0>         0.0882
     64 H24        -1.9623   -4.7602    5.5385 H         1 <0>         0.1390
     65 H25        -2.5875   -3.1018    5.6972 H         1 <0>         0.1377
     66 H26        -9.1768   -4.8037    0.2713 H         1 <0>         0.1436
     67 H27       -11.3771   -3.9365   -0.4876 H         1 <0>         0.1456
     68 H28       -12.0226   -1.6180    0.1316 H         1 <0>         0.1450
     69 H29       -10.4779   -0.2495    1.4712 H         1 <0>         0.1668
     70 H30        -1.1882   -4.1593    3.3454 H         1 <0>         0.4220
@<TRIPOS>BOND
     1    1    6 ar
     2    1    2 ar
     3    1   42 1
     4    2    3 ar
     5    2   43 1
     6    3    4 ar
     7    3   44 1
     8    4    5 ar
     9    4    7 1
    10    5    6 ar
    11    5   45 1
    12    6   46 1
    13    7   16 ar
    14    7    8 ar
    15    8    9 ar
    16    8   47 1
    17    9   14 ar
    18    9   10 ar
    19   10   11 ar
    20   10   48 1
    21   11   12 ar
    22   12   13 ar
    23   12   49 1
    24   13   14 ar
    25   13   50 1
    26   14   15 ar
    27   15   16 ar
    28   16   17 1
    29   17   22 ar
    30   17   18 ar
    31   18   19 ar
    32   18   51 1
    33   19   20 ar
    34   19   52 1
    35   20   21 ar
    36   20   23 1
    37   21   22 ar
    38   21   53 1
    39   22   54 1
    40   23   24 1
    41   23   55 1
    42   23   56 1
    43   24   29 1
    44   24   25 1
    45   24   70 1
    46   25   26 1
    47   25   57 1
    48   25   58 1
    49   26   27 1
    50   26   59 1
    51   26   60 1
    52   27   28 1
    53   27   61 1
    54   27   30 1
    55   28   29 1
    56   28   62 1
    57   28   63 1
    58   29   64 1
    59   29   65 1
    60   30   31 2
    61   30   35 1
    62   31   32 1
    63   32   36 1
    64   32   33 2
    65   33   35 1
    66   34   35 1
    67   36   41 ar
    68   36   37 ar
    69   37   38 ar
    70   37   66 1
    71   38   39 ar
    72   38   67 1
    73   39   40 ar
    74   39   68 1
    75   40   41 ar
    76   40   69 1
@<TRIPOS>MOLECULE
CHEMBL521658
   59    62     0     0     0
SMALL
USER_CHARGES

@<TRIPOS>ATOM
      1 C1         -0.0187    1.5258    0.0104 C.3       1 <0>        -0.1661
      2 C2          0.0021   -0.0041    0.0020 C.3       1 <0>         0.1008
      3 N1         -1.3723   -0.5112    0.0124 N.pl3     1 <0>        -0.4460
      4 C3         -2.1312   -0.7950    1.1245 C.ar      1 <0>         0.0724
      5 C4         -1.9274   -0.7247    2.5030 C.ar      1 <0>         0.0995
      6 C5         -2.9519   -1.1051    3.3531 C.ar      1 <0>         0.0252
      7 N2         -4.1109   -1.5310    2.8851 N.ar      1 <0>        -0.4275
      8 C6         -4.3616   -1.6189    1.5860 C.ar      1 <0>         0.2939
      9 C7         -3.3742   -1.2514    0.6481 C.ar      1 <0>         0.0638
     10 N3         -3.3200   -1.2263   -0.6948 N.2       1 <0>        -0.4362
     11 C8         -2.1470   -0.7867   -1.0830 C.2       1 <0>         0.3412
     12 C9         -1.7235   -0.6177   -2.4903 C.2       1 <0>         0.1321
     13 C10        -2.5421   -0.9023   -3.6755 C.2       1 <0>         0.3645
     14 N4         -1.8334   -0.6335   -4.7373 N.2       1 <0>        -0.3434
     15 O1         -0.5627   -0.1765   -4.3099 O.3       1 <0>         0.0489
     16 N5         -0.5570   -0.1836   -2.8933 N.2       1 <0>        -0.2492
     17 N6         -3.8472   -1.3769   -3.6677 N.pl3     1 <0>        -0.8001
     18 C11        -5.6368   -2.0883    1.1343 C.1       1 <0>        -0.1196
     19 C12        -6.6824   -2.4730    0.7641 C.1       1 <0>        -0.0820
     20 C13        -7.9933   -2.9555    0.2998 C.3       1 <0>         0.2405
     21 C14        -8.0222   -2.9607   -1.2299 C.3       1 <0>        -0.1767
     22 C15        -8.2273   -4.3755    0.8192 C.3       1 <0>        -0.1771
     23 O2         -9.0202   -2.0927    0.7927 O.3       1 <0>        -0.5532
     24 O3         -0.7408   -0.2897    3.0038 O.3       1 <0>        -0.3096
     25 C16        -0.6134   -0.2476    4.4265 C.3       1 <0>         0.0567
     26 C17         0.7797    0.2638    4.7989 C.3       1 <0>        -0.0993
     27 C18         1.8358   -0.7442    4.3366 C.3       1 <0>        -0.1447
     28 C19         3.2193   -0.2656    4.7820 C.3       1 <0>        -0.0073
     29 N7          3.2547   -0.1539    6.2452 N.4       1 <0>        -0.5067
     30 C20         2.2946    0.8632    6.6904 C.3       1 <0>        -0.0042
     31 C21         0.8756    0.4280    6.3185 C.3       1 <0>        -0.1438
     32 H1          1.0039    1.9031    0.0027 H         1 <0>         0.0849
     33 H2         -0.5459    1.8868   -0.8726 H         1 <0>         0.0655
     34 H3         -0.5289    1.8773    0.9072 H         1 <0>         0.0639
     35 H4          0.5123   -0.3556   -0.8948 H         1 <0>         0.1087
     36 H5          0.5293   -0.3651    0.8851 H         1 <0>         0.1005
     37 H6         -2.7999   -1.0528    4.4211 H         1 <0>         0.1723
     38 H7         -4.2955   -1.5492   -2.8249 H         1 <0>         0.4310
     39 H8         -4.3104   -1.5361   -4.5049 H         1 <0>         0.4211
     40 H9         -7.2389   -3.6188   -1.6059 H         1 <0>         0.0724
     41 H10        -8.9930   -3.3180   -1.5737 H         1 <0>         0.0744
     42 H11        -7.8555   -1.9491   -1.5999 H         1 <0>         0.0707
     43 H12        -8.2066   -4.3718    1.9090 H         1 <0>         0.0709
     44 H13        -9.1980   -4.7328    0.4754 H         1 <0>         0.0744
     45 H14        -7.4439   -5.0336    0.4432 H         1 <0>         0.0726
     46 H15        -9.9129   -2.3509    0.5251 H         1 <0>         0.3892
     47 H16        -1.3684    0.4215    4.8392 H         1 <0>         0.0804
     48 H17        -0.7537   -1.2489    4.8336 H         1 <0>         0.0756
     49 H18         0.9560    1.2253    4.3166 H         1 <0>         0.1031
     50 H19         1.6276   -1.7182    4.7793 H         1 <0>         0.0914
     51 H20         1.8109   -0.8248    3.2499 H         1 <0>         0.1164
     52 H21         3.9736   -0.9809    4.4543 H         1 <0>         0.1356
     53 H22         3.4265    0.7083    4.3386 H         1 <0>         0.1321
     54 H23         3.0147   -1.0440    6.6553 H         1 <0>         0.4287
     55 H24         2.3663    0.9812    7.7717 H         1 <0>         0.1378
     56 H25         2.5216    1.8131    6.2063 H         1 <0>         0.1328
     57 H26         0.1644    1.1853    6.6483 H         1 <0>         0.1184
     58 H27         0.6475   -0.5217    6.8023 H         1 <0>         0.0948
     59 H28         4.1832    0.1101    6.5389 H         1 <0>         0.4339
@<TRIPOS>BOND
     1    1    2 1
     2    1   32 1
     3    1   33 1
     4    1   34 1
     5    2    3 1
     6    2   35 1
     7    2   36 1
     8    3   11 1
     9    3    4 1
    10    4    9 ar
    11    4    5 ar
    12    5    6 ar
    13    5   24 1
    14    6    7 ar
    15    6   37 1
    16    7    8 ar
    17    8    9 ar
    18    8   18 1
    19    9   10 1
    20   10   11 2
    21   11   12 1
    22   12   16 2
    23   12   13 1
    24   13   14 2
    25   13   17 1
    26   14   15 1
    27   15   16 1
    28   17   38 1
    29   17   39 1
    30   18   19 3
    31   19   20 1
    32   20   21 1
    33   20   22 1
    34   20   23 1
    35   21   40 1
    36   21   41 1
    37   21   42 1
    38   22   43 1
    39   22   44 1
    40   22   45 1
    41   23   46 1
    42   24   25 1
    43   25   26 1
    44   25   47 1
    45   25   48 1
    46   26   31 1
    47   26   27 1
    48   26   49 1
    49   27   28 1
    50   27   50 1
    51   27   51 1
    52   28   29 1
    53   28   52 1
    54   28   53 1
    55   29   30 1
    56   29   54 1
    57   29   59 1
    58   30   31 1
    59   30   55 1
    60   30   56 1
    61   31   57 1
    62   31   58 1
@<TRIPOS>MOLECULE
CHEMBL104264
   48    50     0     0     0
SMALL
USER_CHARGES

@<TRIPOS>ATOM
      1 C1          2.5162    0.9496    1.4171 C.ar      1 <0>        -0.1558
      2 C2          1.8179    1.8754    0.7027 C.ar      1 <0>        -0.0089
      3 C3          0.8924    1.4496   -0.2625 C.ar      1 <0>        -0.1400
      4 C4          0.1441    2.3570   -1.0300 C.ar      1 <0>         0.1716
      5 N1         -0.7096    1.9109   -1.9214 N.ar      1 <0>        -0.4887
      6 C5         -0.9082    0.6184   -2.1416 C.ar      1 <0>         0.1175
      7 C6         -0.2327   -0.3410   -1.4505 C.ar      1 <0>        -0.1972
      8 C7          0.7007    0.0595   -0.4769 C.ar      1 <0>         0.0581
      9 C8          1.4373   -0.8645    0.2774 C.ar      1 <0>        -0.6935
     10 C9          2.3271   -0.4146    1.2059 C.ar      1 <0>         0.0350
     11 S1          1.2137   -2.5943    0.0269 S.o2      1 <0>         2.6977
     12 O1          2.1244   -3.2517    0.8974 O.2       1 <0>        -0.9448
     13 O2         -0.1865   -2.8329    0.0680 O.2       1 <0>        -0.9312
     14 N2          1.7064   -2.9332   -1.5173 N.pl3     1 <0>        -1.1162
     15 C10         3.1062   -2.7326   -1.9002 C.3       1 <0>         0.0916
     16 C11         3.3893   -3.4769   -3.2066 C.3       1 <0>        -0.0177
     17 N3          4.7929   -3.2757   -3.5905 N.4       1 <0>        -0.5066
     18 C12         5.0647   -3.9903   -4.8449 C.3       1 <0>         0.0395
     19 C13         6.5046   -3.7840   -5.2387 C.2       1 <0>        -0.2534
     20 C14         7.2882   -4.8305   -5.4586 C.2       1 <0>        -0.0124
     21 C15         8.7005   -4.6281   -5.8449 C.ar      1 <0>        -0.0865
     22 C16         9.2134   -3.3367   -5.9733 C.ar      1 <0>        -0.0932
     23 C17        10.5324   -3.1541   -6.3336 C.ar      1 <0>        -0.0930
     24 C18        11.3467   -4.2489   -6.5682 C.ar      1 <0>        -0.0711
     25 C19        10.8435   -5.5324   -6.4424 C.ar      1 <0>        -0.0912
     26 C20         9.5277   -5.7277   -6.0770 C.ar      1 <0>        -0.0822
     27 Br1        13.1533   -3.9899   -7.0630 Br        1 <0>        -0.0276
     28 H1          3.2315    1.2784    2.1565 H         1 <0>         0.1450
     29 H2          1.9750    2.9294    0.8779 H         1 <0>         0.1486
     30 H3          0.2706    3.4199   -0.8866 H         1 <0>         0.1731
     31 H4         -1.6264    0.3180   -2.8902 H         1 <0>         0.1633
     32 H5         -0.4102   -1.3883   -1.6456 H         1 <0>         0.1411
     33 H6          2.8949   -1.1263    1.7868 H         1 <0>         0.1512
     34 H7          1.0683   -3.2645   -2.1683 H         1 <0>         0.4272
     35 H8          3.2957   -1.6683   -2.0399 H         1 <0>         0.0890
     36 H9          3.7565   -3.1173   -1.1145 H         1 <0>         0.1050
     37 H10         3.1998   -4.5411   -3.0669 H         1 <0>         0.1445
     38 H11         2.7390   -3.0921   -3.9922 H         1 <0>         0.1424
     39 H12         4.9683   -2.2905   -3.7199 H         1 <0>         0.4308
     40 H13         4.8752   -5.0546   -4.7051 H         1 <0>         0.1348
     41 H14         4.4144   -3.6056   -5.6305 H         1 <0>         0.1403
     42 H15         6.8982   -2.7835   -5.3419 H         1 <0>         0.1396
     43 H16         6.8946   -5.8309   -5.3555 H         1 <0>         0.1348
     44 H17         8.5789   -2.4819   -5.7913 H         1 <0>         0.1337
     45 H18        10.9305   -2.1552   -6.4334 H         1 <0>         0.1407
     46 H19        11.4834   -6.3826   -6.6269 H         1 <0>         0.1428
     47 H20         9.1374   -6.7295   -5.9748 H         1 <0>         0.1397
     48 H21         5.3949   -3.6319   -2.8633 H         1 <0>         0.4327
@<TRIPOS>BOND
     1    1   10 ar
     2    1    2 ar
     3    1   28 1
     4    2    3 ar
     5    2   29 1
     6    3    8 ar
     7    3    4 ar
     8    4    5 ar
     9    4   30 1
    10    5    6 ar
    11    6    7 ar
    12    6   31 1
    13    7    8 ar
    14    7   32 1
    15    8    9 ar
    16    9   10 ar
    17    9   11 1
    18   10   33 1
    19   11   12 2
    20   11   13 2
    21   11   14 1
    22   14   15 1
    23   14   34 1
    24   15   16 1
    25   15   35 1
    26   15   36 1
    27   16   17 1
    28   16   37 1
    29   16   38 1
    30   17   18 1
    31   17   39 1
    32   17   48 1
    33   18   19 1
    34   18   40 1
    35   18   41 1
    36   19   20 2
    37   19   42 1
    38   20   21 1
    39   20   43 1
    40   21   26 ar
    41   21   22 ar
    42   22   23 ar
    43   22   44 1
    44   23   24 ar
    45   23   45 1
    46   24   25 ar
    47   24   27 1
    48   25   26 ar
    49   25   46 1
    50   26   47 1
@<TRIPOS>MOLECULE
CHEMBL228750
   51    54     0     0     0
SMALL
USER_CHARGES

@<TRIPOS>ATOM
      1 C1         -0.1860   -0.3007    2.3766 C.ar      1 <0>        -0.1103
      2 C2          1.0113    0.3533    2.1709 C.ar      1 <0>        -0.1118
      3 C3          1.8240    0.0042    1.0982 C.ar      1 <0>         0.1210
      4 C4          1.4115   -1.0179    0.2322 C.ar      1 <0>        -0.0767
      5 C5          0.2040   -1.6746    0.4429 C.ar      1 <0>        -0.0714
      6 C6         -0.5946   -1.3143    1.5172 C.ar      1 <0>         0.1442
      7 N1         -1.8128   -1.9717    1.7372 N.am      1 <0>        -0.6838
      8 C7         -2.5253   -2.4376    0.6924 C.2       1 <0>         0.7074
      9 O1         -2.0179   -2.4982   -0.4109 O.2       1 <0>        -0.5742
     10 N2         -3.8004   -2.8364    0.8705 N.am      1 <0>        -0.8596
     11 C8          2.4730   -1.1521   -0.7905 C.2       1 <0>        -0.1816
     12 C9          2.5079   -2.0319   -1.8537 C.2       1 <0>         0.0766
     13 C10         3.7478   -2.4393   -2.3926 C.2       1 <0>        -0.0205
     14 C11         4.1278   -3.7392   -2.6624 C.2       1 <0>        -0.0779
     15 C12         5.4364   -3.6814   -3.1877 C.2       1 <0>        -0.2333
     16 C13         5.8066   -2.3491   -3.2191 C.2       1 <0>         0.0627
     17 N3          4.7900   -1.6080   -2.7475 N.pl3     1 <0>        -0.4984
     18 H1          4.7897   -0.6414   -2.6672 H         1 <0>         0.4322
     19 C14         6.2562   -4.8273   -3.6213 C.2       1 <0>         0.5913
     20 O2          5.8129   -5.9569   -3.5415 O.2       1 <0>        -0.5409
     21 N4          7.4970   -4.6231   -4.1062 N.am      1 <0>        -0.7333
     22 C15         8.3117   -5.7619   -4.5371 C.3       1 <0>         0.1277
     23 C16         9.6657   -5.2586   -5.0413 C.3       1 <0>        -0.0944
     24 C17        10.5037   -6.4300   -5.4846 C.ar      1 <0>        -0.0384
     25 C18        11.3400   -7.0826   -4.5917 C.ar      1 <0>        -0.1679
     26 C19        12.0937   -8.1531   -5.0344 C.ar      1 <0>         0.1012
     27 N5         12.0241   -8.5544   -6.2886 N.ar      1 <0>        -0.4870
     28 C20        11.2400   -7.9577   -7.1650 C.ar      1 <0>         0.1012
     29 C21        10.4525   -6.8845   -6.7935 C.ar      1 <0>        -0.1678
     30 C22         3.4815   -0.1465   -0.4295 C.2       1 <0>         0.5662
     31 O3          4.5224    0.0688   -1.0245 O.2       1 <0>        -0.5248
     32 N6          3.0546    0.4942    0.6718 N.am      1 <0>        -0.6460
     33 H2         -0.8091   -0.0258    3.2148 H         1 <0>         0.1360
     34 H3          1.3182    1.1392    2.8452 H         1 <0>         0.1340
     35 H4         -0.1100   -2.4614   -0.2270 H         1 <0>         0.1607
     36 H5         -2.1430   -2.0913    2.6414 H         1 <0>         0.4103
     37 H6         -4.2052   -2.7881    1.7507 H         1 <0>         0.4000
     38 H7         -4.3132   -3.1718    0.1186 H         1 <0>         0.4203
     39 H8          1.5868   -2.4087   -2.2733 H         1 <0>         0.1622
     40 H9          3.5370   -4.6290   -2.5022 H         1 <0>         0.1550
     41 H10         6.7542   -1.9673   -3.5692 H         1 <0>         0.1738
     42 H11         7.8506   -3.7221   -4.1699 H         1 <0>         0.3983
     43 H12         8.4657   -6.4375   -3.6957 H         1 <0>         0.0709
     44 H13         7.7993   -6.2922   -5.3398 H         1 <0>         0.0713
     45 H14         9.5117   -4.5830   -5.8827 H         1 <0>         0.0854
     46 H15        10.1781   -4.7283   -4.2386 H         1 <0>         0.0853
     47 H16        11.4019   -6.7582   -3.5635 H         1 <0>         0.1358
     48 H17        12.7476   -8.6668   -4.3452 H         1 <0>         0.1568
     49 H18        11.2097   -8.3145   -8.1839 H         1 <0>         0.1569
     50 H19         9.8086   -6.4031   -7.5146 H         1 <0>         0.1359
     51 H20         3.5418    1.2076    1.1130 H         1 <0>         0.4191
@<TRIPOS>BOND
     1    1    6 ar
     2    1    2 ar
     3    1   33 1
     4    2    3 ar
     5    2   34 1
     6    3   32 1
     7    3    4 ar
     8    4    5 ar
     9    4   11 1
    10    5    6 ar
    11    5   35 1
    12    6    7 1
    13    7    8 am
    14    7   36 1
    15    8    9 2
    16    8   10 am
    17   10   37 1
    18   10   38 1
    19   11   12 2
    20   11   30 1
    21   12   13 1
    22   12   39 1
    23   13   17 1
    24   13   14 2
    25   14   15 1
    26   14   40 1
    27   15   16 2
    28   15   19 1
    29   16   17 1
    30   16   41 1
    31   17   18 1
    32   19   20 2
    33   19   21 am
    34   21   22 1
    35   21   42 1
    36   22   23 1
    37   22   43 1
    38   22   44 1
    39   23   24 1
    40   23   45 1
    41   23   46 1
    42   24   29 ar
    43   24   25 ar
    44   25   26 ar
    45   25   47 1
    46   26   27 ar
    47   26   48 1
    48   27   28 ar
    49   28   29 ar
    50   28   49 1
    51   29   50 1
    52   30   31 2
    53   30   32 am
    54   32   51 1
@<TRIPOS>MOLECULE
CHEMBL388184
   55    58     0     0     0
SMALL
USER_CHARGES

@<TRIPOS>ATOM
      1 C1         -0.1860   -0.3007    2.3766 C.ar      1 <0>        -0.1104
      2 C2          1.0113    0.3533    2.1709 C.ar      1 <0>        -0.1118
      3 C3          1.8240    0.0042    1.0982 C.ar      1 <0>         0.1210
      4 C4          1.4115   -1.0179    0.2322 C.ar      1 <0>        -0.0765
      5 C5          0.2040   -1.6746    0.4429 C.ar      1 <0>        -0.0714
      6 C6         -0.5946   -1.3143    1.5172 C.ar      1 <0>         0.1442
      7 N1         -1.8128   -1.9717    1.7372 N.am      1 <0>        -0.6838
      8 C7         -2.5253   -2.4376    0.6924 C.2       1 <0>         0.7074
      9 O1         -2.0179   -2.4982   -0.4109 O.2       1 <0>        -0.5741
     10 N2         -3.8004   -2.8364    0.8705 N.am      1 <0>        -0.8597
     11 C8          2.4730   -1.1521   -0.7905 C.2       1 <0>        -0.1820
     12 C9          2.5079   -2.0319   -1.8537 C.2       1 <0>         0.0771
     13 C10         3.7478   -2.4393   -2.3926 C.2       1 <0>        -0.0209
     14 C11         4.1278   -3.7392   -2.6624 C.2       1 <0>        -0.0776
     15 C12         5.4364   -3.6814   -3.1877 C.2       1 <0>        -0.2327
     16 C13         5.8066   -2.3491   -3.2191 C.2       1 <0>         0.0625
     17 N3          4.7900   -1.6080   -2.7475 N.pl3     1 <0>        -0.4984
     18 H1          4.7897   -0.6414   -2.6672 H         1 <0>         0.4321
     19 C14         6.2562   -4.8273   -3.6213 C.2       1 <0>         0.5924
     20 O2          5.8129   -5.9569   -3.5415 O.2       1 <0>        -0.5406
     21 N4          7.4970   -4.6231   -4.1062 N.am      1 <0>        -0.7324
     22 C15         8.3117   -5.7619   -4.5371 C.3       1 <0>         0.1241
     23 C16         9.6657   -5.2586   -5.0413 C.3       1 <0>         0.0444
     24 N5         10.4826   -6.4005   -5.4734 N.3       1 <0>        -0.5333
     25 C17        10.8380   -7.2559   -4.3318 C.3       1 <0>         0.0114
     26 C18        11.6361   -8.4621   -4.8338 C.3       1 <0>         0.0627
     27 O3         12.7884   -8.0022   -5.5452 O.3       1 <0>        -0.3854
     28 C19        12.4789   -7.1667   -6.6640 C.3       1 <0>         0.0628
     29 C20        11.6893   -5.9475   -6.1805 C.3       1 <0>         0.0185
     30 C21         3.4815   -0.1465   -0.4295 C.2       1 <0>         0.5661
     31 O4          4.5224    0.0688   -1.0245 O.2       1 <0>        -0.5248
     32 N6          3.0546    0.4942    0.6718 N.am      1 <0>        -0.6460
     33 H2         -0.8091   -0.0258    3.2148 H         1 <0>         0.1360
     34 H3          1.3182    1.1392    2.8452 H         1 <0>         0.1339
     35 H4         -0.1100   -2.4614   -0.2270 H         1 <0>         0.1607
     36 H5         -2.1430   -2.0913    2.6414 H         1 <0>         0.4103
     37 H6         -4.2052   -2.7881    1.7507 H         1 <0>         0.3999
     38 H7         -4.3132   -3.1718    0.1186 H         1 <0>         0.4203
     39 H8          1.5868   -2.4087   -2.2733 H         1 <0>         0.1623
     40 H9          3.5370   -4.6290   -2.5022 H         1 <0>         0.1552
     41 H10         6.7542   -1.9673   -3.5692 H         1 <0>         0.1734
     42 H11         7.8506   -3.7221   -4.1699 H         1 <0>         0.3969
     43 H12         8.4657   -6.4375   -3.6957 H         1 <0>         0.0681
     44 H13         7.7993   -6.2922   -5.3398 H         1 <0>         0.0786
     45 H14         9.5117   -4.5830   -5.8827 H         1 <0>         0.0838
     46 H15        10.1781   -4.7283   -4.2386 H         1 <0>         0.0428
     47 H16        11.4431   -6.6875   -3.6255 H         1 <0>         0.0454
     48 H17         9.9292   -7.6006   -3.8385 H         1 <0>         0.0918
     49 H18        11.9508   -9.0692   -3.9850 H         1 <0>         0.1000
     50 H19        11.0126   -9.0600   -5.4986 H         1 <0>         0.0622
     51 H20        13.4030   -6.8370   -7.1387 H         1 <0>         0.0997
     52 H21        11.8799   -7.7270   -7.3819 H         1 <0>         0.0617
     53 H22        11.4019   -5.3371   -7.0366 H         1 <0>         0.0884
     54 H23        12.3080   -5.3581   -5.5037 H         1 <0>         0.0448
     55 H24         3.5418    1.2076    1.1130 H         1 <0>         0.4191
@<TRIPOS>BOND
     1    1    6 ar
     2    1    2 ar
     3    1   33 1
     4    2    3 ar
     5    2   34 1
     6    3   32 1
     7    3    4 ar
     8    4    5 ar
     9    4   11 1
    10    5    6 ar
    11    5   35 1
    12    6    7 1
    13    7    8 am
    14    7   36 1
    15    8    9 2
    16    8   10 am
    17   10   37 1
    18   10   38 1
    19   11   12 2
    20   11   30 1
    21   12   13 1
    22   12   39 1
    23   13   17 1
    24   13   14 2
    25   14   15 1
    26   14   40 1
    27   15   16 2
    28   15   19 1
    29   16   17 1
    30   16   41 1
    31   17   18 1
    32   19   20 2
    33   19   21 am
    34   21   22 1
    35   21   42 1
    36   22   23 1
    37   22   43 1
    38   22   44 1
    39   23   24 1
    40   23   45 1
    41   23   46 1
    42   24   29 1
    43   24   25 1
    44   25   26 1
    45   25   47 1
    46   25   48 1
    47   26   27 1
    48   26   49 1
    49   26   50 1
    50   27   28 1
    51   28   29 1
    52   28   51 1
    53   28   52 1
    54   29   53 1
    55   29   54 1
    56   30   31 2
    57   30   32 am
    58   32   55 1
@<TRIPOS>MOLECULE
CHEMBL388184
   56    59     0     0     0
SMALL
USER_CHARGES

@<TRIPOS>ATOM
      1 C1         -0.1860   -0.3007    2.3766 C.ar      1 <0>        -0.1065
      2 C2          1.0113    0.3533    2.1709 C.ar      1 <0>        -0.1096
      3 C3          1.8240    0.0042    1.0982 C.ar      1 <0>         0.1203
      4 C4          1.4115   -1.0179    0.2322 C.ar      1 <0>        -0.0836
      5 C5          0.2040   -1.6746    0.4429 C.ar      1 <0>        -0.0691
      6 C6         -0.5946   -1.3143    1.5172 C.ar      1 <0>         0.1471
      7 N1         -1.8128   -1.9717    1.7372 N.am      1 <0>        -0.6842
      8 C7         -2.5253   -2.4376    0.6924 C.2       1 <0>         0.7085
      9 O1         -2.0179   -2.4982   -0.4109 O.2       1 <0>        -0.5763
     10 N2         -3.8004   -2.8364    0.8705 N.am      1 <0>        -0.8583
     11 C8          2.4730   -1.1521   -0.7905 C.2       1 <0>        -0.1651
     12 C9          2.5079   -2.0319   -1.8537 C.2       1 <0>         0.0585
     13 C10         3.7478   -2.4393   -2.3926 C.2       1 <0>        -0.0047
     14 C11         4.1278   -3.7392   -2.6624 C.2       1 <0>        -0.0802
     15 C12         5.4364   -3.6814   -3.1877 C.2       1 <0>        -0.2436
     16 C13         5.8066   -2.3491   -3.2191 C.2       1 <0>         0.0622
     17 N3          4.7900   -1.6080   -2.7475 N.pl3     1 <0>        -0.4942
     18 H1          4.7897   -0.6414   -2.6672 H         1 <0>         0.4349
     19 C14         6.2562   -4.8273   -3.6213 C.2       1 <0>         0.6028
     20 O2          5.8129   -5.9569   -3.5415 O.2       1 <0>        -0.5300
     21 N4          7.4970   -4.6231   -4.1062 N.am      1 <0>        -0.7365
     22 C15         8.3117   -5.7619   -4.5371 C.3       1 <0>         0.0985
     23 C16         9.6657   -5.2586   -5.0413 C.3       1 <0>        -0.0216
     24 N5         10.4826   -6.4005   -5.4734 N.4       1 <0>        -0.3815
     25 C17        10.7916   -7.2485   -4.3139 C.3       1 <0>        -0.0514
     26 C18        11.6425   -8.4376   -4.7666 C.3       1 <0>         0.0366
     27 O3         12.8325   -7.9535   -5.3955 O.3       1 <0>        -0.3564
     28 C19        12.5831   -7.1023   -6.5175 C.3       1 <0>         0.0357
     29 C20        11.7339   -5.9107   -6.0680 C.3       1 <0>        -0.0425
     30 C21         3.4815   -0.1465   -0.4295 C.2       1 <0>         0.5667
     31 O4          4.5224    0.0688   -1.0245 O.2       1 <0>        -0.5285
     32 N6          3.0546    0.4942    0.6718 N.am      1 <0>        -0.6437
     33 H2         -0.8091   -0.0258    3.2148 H         1 <0>         0.1385
     34 H3          1.3182    1.1392    2.8452 H         1 <0>         0.1360
     35 H4         -0.1100   -2.4614   -0.2270 H         1 <0>         0.1614
     36 H5         -2.1430   -2.0913    2.6414 H         1 <0>         0.4117
     37 H6         -4.2052   -2.7881    1.7507 H         1 <0>         0.4011
     38 H7         -4.3132   -3.1718    0.1186 H         1 <0>         0.4211
     39 H8          1.5868   -2.4087   -2.2733 H         1 <0>         0.1646
     40 H9          3.5370   -4.6290   -2.5022 H         1 <0>         0.1566
     41 H10         6.7542   -1.9673   -3.5692 H         1 <0>         0.1715
     42 H11         7.8506   -3.7221   -4.1699 H         1 <0>         0.4051
     43 H12         8.4657   -6.4375   -3.6957 H         1 <0>         0.0885
     44 H13         7.7993   -6.2922   -5.3398 H         1 <0>         0.0895
     45 H14         9.5117   -4.5830   -5.8827 H         1 <0>         0.1405
     46 H15        10.1781   -4.7283   -4.2386 H         1 <0>         0.1383
     47 H16        11.3430   -6.6672   -3.5749 H         1 <0>         0.1415
     48 H17         9.8640   -7.6125   -3.8721 H         1 <0>         0.1461
     49 H18        11.9091   -9.0448   -3.9016 H         1 <0>         0.1435
     50 H19        11.0761   -9.0416   -5.4755 H         1 <0>         0.0831
     51 H20        13.5304   -6.7431   -6.9196 H         1 <0>         0.1430
     52 H21        12.0488   -7.6606   -7.2863 H         1 <0>         0.0824
     53 H22        11.5058   -5.2816   -6.9284 H         1 <0>         0.1442
     54 H23        12.2849   -5.3299   -5.3284 H         1 <0>         0.1403
     55 H24         3.5418    1.2076    1.1130 H         1 <0>         0.4208
     56 H25         9.9730   -6.9389   -6.1579 H         1 <0>         0.4262
@<TRIPOS>BOND
     1    1    6 ar
     2    1    2 ar
     3    1   33 1
     4    2    3 ar
     5    2   34 1
     6    3   32 1
     7    3    4 ar
     8    4    5 ar
     9    4   11 1
    10    5    6 ar
    11    5   35 1
    12    6    7 1
    13    7    8 am
    14    7   36 1
    15    8    9 2
    16    8   10 am
    17   10   37 1
    18   10   38 1
    19   11   12 2
    20   11   30 1
    21   12   13 1
    22   12   39 1
    23   13   17 1
    24   13   14 2
    25   14   15 1
    26   14   40 1
    27   15   16 2
    28   15   19 1
    29   16   17 1
    30   16   41 1
    31   17   18 1
    32   19   20 2
    33   19   21 am
    34   21   22 1
    35   21   42 1
    36   22   23 1
    37   22   43 1
    38   22   44 1
    39   23   24 1
    40   23   45 1
    41   23   46 1
    42   24   29 1
    43   24   25 1
    44   24   56 1
    45   25   26 1
    46   25   47 1
    47   25   48 1
    48   26   27 1
    49   26   49 1
    50   26   50 1
    51   27   28 1
    52   28   29 1
    53   28   51 1
    54   28   52 1
    55   29   53 1
    56   29   54 1
    57   30   31 2
    58   30   32 am
    59   32   55 1
@<TRIPOS>MOLECULE
CHEMBL228701
   58    61     0     0     0
SMALL
USER_CHARGES

@<TRIPOS>ATOM
      1 C1         -0.1860   -0.3007    2.3766 C.ar      1 <0>        -0.1067
      2 C2          1.0113    0.3533    2.1709 C.ar      1 <0>        -0.1097
      3 C3          1.8240    0.0042    1.0982 C.ar      1 <0>         0.1203
      4 C4          1.4115   -1.0179    0.2322 C.ar      1 <0>        -0.0834
      5 C5          0.2040   -1.6746    0.4429 C.ar      1 <0>        -0.0692
      6 C6         -0.5946   -1.3143    1.5172 C.ar      1 <0>         0.1470
      7 N1         -1.8128   -1.9717    1.7372 N.am      1 <0>        -0.6842
      8 C7         -2.5253   -2.4376    0.6924 C.2       1 <0>         0.7085
      9 O1         -2.0179   -2.4982   -0.4109 O.2       1 <0>        -0.5762
     10 N2         -3.8004   -2.8364    0.8705 N.am      1 <0>        -0.8584
     11 C8          2.4730   -1.1521   -0.7905 C.2       1 <0>        -0.1659
     12 C9          2.5079   -2.0319   -1.8537 C.2       1 <0>         0.0593
     13 C10         3.7478   -2.4393   -2.3926 C.2       1 <0>        -0.0054
     14 C11         4.1278   -3.7392   -2.6624 C.2       1 <0>        -0.0801
     15 C12         5.4364   -3.6814   -3.1877 C.2       1 <0>        -0.2431
     16 C13         5.8066   -2.3491   -3.2191 C.2       1 <0>         0.0621
     17 N3          4.7900   -1.6080   -2.7475 N.pl3     1 <0>        -0.4944
     18 H1          4.7897   -0.6414   -2.6672 H         1 <0>         0.4348
     19 C14         6.2562   -4.8273   -3.6213 C.2       1 <0>         0.6023
     20 O2          5.8129   -5.9569   -3.5415 O.2       1 <0>        -0.5303
     21 N4          7.4970   -4.6231   -4.1062 N.am      1 <0>        -0.7364
     22 C15         8.3117   -5.7619   -4.5371 C.3       1 <0>         0.0984
     23 C16         9.6657   -5.2586   -5.0413 C.3       1 <0>        -0.0221
     24 N5         10.4826   -6.4005   -5.4734 N.4       1 <0>        -0.3786
     25 C17        10.7820   -7.2518   -4.3158 C.3       1 <0>        -0.0153
     26 C18        11.5638   -8.4850   -4.7734 C.3       1 <0>        -0.1458
     27 C19        12.8720   -8.0378   -5.4321 C.3       1 <0>        -0.1398
     28 C20        12.5504   -7.0911   -6.5920 C.3       1 <0>        -0.1464
     29 C21        11.7320   -5.9096   -6.0670 C.3       1 <0>        -0.0057
     30 C22         3.4815   -0.1465   -0.4295 C.2       1 <0>         0.5668
     31 O3          4.5224    0.0688   -1.0245 O.2       1 <0>        -0.5284
     32 N6          3.0546    0.4942    0.6718 N.am      1 <0>        -0.6438
     33 H2         -0.8091   -0.0258    3.2148 H         1 <0>         0.1384
     34 H3          1.3182    1.1392    2.8452 H         1 <0>         0.1359
     35 H4         -0.1100   -2.4614   -0.2270 H         1 <0>         0.1613
     36 H5         -2.1430   -2.0913    2.6414 H         1 <0>         0.4116
     37 H6         -4.2052   -2.7881    1.7507 H         1 <0>         0.4011
     38 H7         -4.3132   -3.1718    0.1186 H         1 <0>         0.4211
     39 H8          1.5868   -2.4087   -2.2733 H         1 <0>         0.1645
     40 H9          3.5370   -4.6290   -2.5022 H         1 <0>         0.1565
     41 H10         6.7542   -1.9673   -3.5692 H         1 <0>         0.1716
     42 H11         7.8506   -3.7221   -4.1699 H         1 <0>         0.4048
     43 H12         8.4657   -6.4375   -3.6957 H         1 <0>         0.0886
     44 H13         7.7993   -6.2922   -5.3398 H         1 <0>         0.0889
     45 H14         9.5117   -4.5830   -5.8827 H         1 <0>         0.1383
     46 H15        10.1781   -4.7283   -4.2386 H         1 <0>         0.1365
     47 H16        11.3784   -6.6902   -3.5968 H         1 <0>         0.1304
     48 H17         9.8500   -7.5667   -3.8462 H         1 <0>         0.1338
     49 H18        11.7867   -9.1149   -3.9122 H         1 <0>         0.1132
     50 H19        10.9681   -9.0476   -5.4922 H         1 <0>         0.0890
     51 H20        13.4905   -7.5195   -4.6993 H         1 <0>         0.0818
     52 H21        13.4062   -8.9094   -5.8103 H         1 <0>         0.0947
     53 H22        13.4785   -6.7247   -7.0308 H         1 <0>         0.1130
     54 H23        11.9752   -7.6248   -7.3486 H         1 <0>         0.0886
     55 H24        11.5015   -5.2335   -6.8903 H         1 <0>         0.1311
     56 H25        12.3082   -5.3765   -5.3108 H         1 <0>         0.1293
     57 H26         3.5418    1.2076    1.1130 H         1 <0>         0.4208
     58 H27         9.9731   -6.9366   -6.1598 H         1 <0>         0.4253
@<TRIPOS>BOND
     1    1    6 ar
     2    1    2 ar
     3    1   33 1
     4    2    3 ar
     5    2   34 1
     6    3   32 1
     7    3    4 ar
     8    4    5 ar
     9    4   11 1
    10    5    6 ar
    11    5   35 1
    12    6    7 1
    13    7    8 am
    14    7   36 1
    15    8    9 2
    16    8   10 am
    17   10   37 1
    18   10   38 1
    19   11   12 2
    20   11   30 1
    21   12   13 1
    22   12   39 1
    23   13   17 1
    24   13   14 2
    25   14   15 1
    26   14   40 1
    27   15   16 2
    28   15   19 1
    29   16   17 1
    30   16   41 1
    31   17   18 1
    32   19   20 2
    33   19   21 am
    34   21   22 1
    35   21   42 1
    36   22   23 1
    37   22   43 1
    38   22   44 1
    39   23   24 1
    40   23   45 1
    41   23   46 1
    42   24   29 1
    43   24   25 1
    44   24   58 1
    45   25   26 1
    46   25   47 1
    47   25   48 1
    48   26   27 1
    49   26   49 1
    50   26   50 1
    51   27   28 1
    52   27   51 1
    53   27   52 1
    54   28   29 1
    55   28   53 1
    56   28   54 1
    57   29   55 1
    58   29   56 1
    59   30   31 2
    60   30   32 am
    61   32   57 1
@<TRIPOS>MOLECULE
CHEMBL228749
   50    53     0     0     0
SMALL
USER_CHARGES

@<TRIPOS>ATOM
      1 C1         -0.1860   -0.3007    2.3766 C.ar      1 <0>        -0.1075
      2 C2          1.0113    0.3533    2.1709 C.ar      1 <0>        -0.1101
      3 C3          1.8240    0.0042    1.0982 C.ar      1 <0>         0.1205
      4 C4          1.4115   -1.0179    0.2322 C.ar      1 <0>        -0.0819
      5 C5          0.2040   -1.6746    0.4429 C.ar      1 <0>        -0.0698
      6 C6         -0.5946   -1.3143    1.5172 C.ar      1 <0>         0.1463
      7 N1         -1.8128   -1.9717    1.7372 N.am      1 <0>        -0.6841
      8 C7         -2.5253   -2.4376    0.6924 C.2       1 <0>         0.7083
      9 O1         -2.0179   -2.4982   -0.4109 O.2       1 <0>        -0.5760
     10 N2         -3.8004   -2.8364    0.8705 N.am      1 <0>        -0.8587
     11 C8          2.4730   -1.1521   -0.7905 C.2       1 <0>        -0.1695
     12 C9          2.5079   -2.0319   -1.8537 C.2       1 <0>         0.0632
     13 C10         3.7478   -2.4393   -2.3926 C.2       1 <0>        -0.0094
     14 C11         4.1278   -3.7392   -2.6624 C.2       1 <0>        -0.0806
     15 C12         5.4364   -3.6814   -3.1877 C.2       1 <0>        -0.2411
     16 C13         5.8066   -2.3491   -3.2191 C.2       1 <0>         0.0617
     17 N3          4.7900   -1.6080   -2.7475 N.pl3     1 <0>        -0.4958
     18 H1          4.7897   -0.6414   -2.6672 H         1 <0>         0.4339
     19 C14         6.2562   -4.8273   -3.6213 C.2       1 <0>         0.5984
     20 O2          5.8129   -5.9569   -3.5415 O.2       1 <0>        -0.5370
     21 N4          7.4970   -4.6231   -4.1062 N.am      1 <0>        -0.7387
     22 C15         8.3117   -5.7619   -4.5371 C.3       1 <0>         0.1244
     23 C16         9.6657   -5.2586   -5.0413 C.3       1 <0>        -0.0766
     24 C17        10.5037   -6.4300   -5.4846 C.2       1 <0>         0.0648
     25 C18        11.2789   -7.2044   -4.7016 C.2       1 <0>         0.0093
     26 N5         11.8561   -8.1333   -5.4782 N.pl3     1 <0>        -0.4728
     27 C19        11.4680   -7.9640   -6.7125 C.cat     1 <0>         0.3083
     28 N6         10.6186   -6.9151   -6.7594 N.pl3     1 <0>        -0.5096
     29 H2         10.1746   -6.5689   -7.5492 H         1 <0>         0.4660
     30 C20         3.4815   -0.1465   -0.4295 C.2       1 <0>         0.5666
     31 O3          4.5224    0.0688   -1.0245 O.2       1 <0>        -0.5275
     32 N7          3.0546    0.4942    0.6718 N.am      1 <0>        -0.6444
     33 H3         -0.8091   -0.0258    3.2148 H         1 <0>         0.1379
     34 H4          1.3182    1.1392    2.8452 H         1 <0>         0.1355
     35 H5         -0.1100   -2.4614   -0.2270 H         1 <0>         0.1611
     36 H6         -2.1430   -2.0913    2.6414 H         1 <0>         0.4114
     37 H7         -4.2052   -2.7881    1.7507 H         1 <0>         0.4009
     38 H8         -4.3132   -3.1718    0.1186 H         1 <0>         0.4209
     39 H9          1.5868   -2.4087   -2.2733 H         1 <0>         0.1636
     40 H10         3.5370   -4.6290   -2.5022 H         1 <0>         0.1555
     41 H11         6.7542   -1.9673   -3.5692 H         1 <0>         0.1724
     42 H12         7.8506   -3.7221   -4.1699 H         1 <0>         0.4021
     43 H13         8.4657   -6.4375   -3.6957 H         1 <0>         0.0781
     44 H14         7.7993   -6.2922   -5.3398 H         1 <0>         0.0715
     45 H15         9.5117   -4.5830   -5.8827 H         1 <0>         0.1052
     46 H16        10.1781   -4.7283   -4.2386 H         1 <0>         0.1213
     47 H17        11.4125   -7.0964   -3.6354 H         1 <0>         0.2260
     48 H18        11.7724   -8.5656   -7.5562 H         1 <0>         0.2673
     49 H19         3.5418    1.2076    1.1130 H         1 <0>         0.4204
     50 H20        12.4660   -8.8221   -5.1708 H         1 <0>         0.4683
@<TRIPOS>BOND
     1    1    6 ar
     2    1    2 ar
     3    1   33 1
     4    2    3 ar
     5    2   34 1
     6    3   32 1
     7    3    4 ar
     8    4    5 ar
     9    4   11 1
    10    5    6 ar
    11    5   35 1
    12    6    7 1
    13    7    8 am
    14    7   36 1
    15    8    9 2
    16    8   10 am
    17   10   37 1
    18   10   38 1
    19   11   12 2
    20   11   30 1
    21   12   13 1
    22   12   39 1
    23   13   17 1
    24   13   14 2
    25   14   15 1
    26   14   40 1
    27   15   16 2
    28   15   19 1
    29   16   17 1
    30   16   41 1
    31   17   18 1
    32   19   20 2
    33   19   21 am
    34   21   22 1
    35   21   42 1
    36   22   23 1
    37   22   43 1
    38   22   44 1
    39   23   24 1
    40   23   45 1
    41   23   46 1
    42   24   28 1
    43   24   25 2
    44   25   26 1
    45   25   47 1
    46   26   27 2
    47   26   50 1
    48   27   28 1
    49   27   48 1
    50   28   29 1
    51   30   31 2
    52   30   32 am
    53   32   49 1
@<TRIPOS>MOLECULE
CHEMBL228749
   49    52     0     0     0
SMALL
USER_CHARGES

@<TRIPOS>ATOM
      1 C1         -0.1860   -0.3007    2.3766 C.ar      1 <0>        -0.1109
      2 C2          1.0113    0.3533    2.1709 C.ar      1 <0>        -0.1120
      3 C3          1.8240    0.0042    1.0982 C.ar      1 <0>         0.1211
      4 C4          1.4115   -1.0179    0.2322 C.ar      1 <0>        -0.0757
      5 C5          0.2040   -1.6746    0.4429 C.ar      1 <0>        -0.0718
      6 C6         -0.5946   -1.3143    1.5172 C.ar      1 <0>         0.1438
      7 N1         -1.8128   -1.9717    1.7372 N.am      1 <0>        -0.6837
      8 C7         -2.5253   -2.4376    0.6924 C.2       1 <0>         0.7073
      9 O1         -2.0179   -2.4982   -0.4109 O.2       1 <0>        -0.5740
     10 N2         -3.8004   -2.8364    0.8705 N.am      1 <0>        -0.8598
     11 C8          2.4730   -1.1521   -0.7905 C.2       1 <0>        -0.1838
     12 C9          2.5079   -2.0319   -1.8537 C.2       1 <0>         0.0789
     13 C10         3.7478   -2.4393   -2.3926 C.2       1 <0>        -0.0229
     14 C11         4.1278   -3.7392   -2.6624 C.2       1 <0>        -0.0777
     15 C12         5.4364   -3.6814   -3.1877 C.2       1 <0>        -0.2312
     16 C13         5.8066   -2.3491   -3.2191 C.2       1 <0>         0.0624
     17 N3          4.7900   -1.6080   -2.7475 N.pl3     1 <0>        -0.4992
     18 H1          4.7897   -0.6414   -2.6672 H         1 <0>         0.4317
     19 C14         6.2562   -4.8273   -3.6213 C.2       1 <0>         0.5898
     20 O2          5.8129   -5.9569   -3.5415 O.2       1 <0>        -0.5421
     21 N4          7.4970   -4.6231   -4.1062 N.am      1 <0>        -0.7327
     22 C15         8.3117   -5.7619   -4.5371 C.3       1 <0>         0.1297
     23 C16         9.6657   -5.2586   -5.0413 C.3       1 <0>        -0.0437
     24 C17        10.5037   -6.4300   -5.4846 C.2       1 <0>         0.0028
     25 C18        11.0778   -6.5799   -6.6935 C.2       1 <0>        -0.0497
     26 N5         11.7422   -7.7765   -6.6708 N.pl3     1 <0>        -0.5707
     27 C19        11.5508   -8.3165   -5.4479 C.2       1 <0>         0.1880
     28 N6         10.8133   -7.5034   -4.7422 N.2       1 <0>        -0.4866
     29 H2         12.2547   -8.1642   -7.3973 H         1 <0>         0.4216
     30 C20         3.4815   -0.1465   -0.4295 C.2       1 <0>         0.5662
     31 O3          4.5224    0.0688   -1.0245 O.2       1 <0>        -0.5244
     32 N7          3.0546    0.4942    0.6718 N.am      1 <0>        -0.6463
     33 H3         -0.8091   -0.0258    3.2148 H         1 <0>         0.1357
     34 H4          1.3182    1.1392    2.8452 H         1 <0>         0.1337
     35 H5         -0.1100   -2.4614   -0.2270 H         1 <0>         0.1605
     36 H6         -2.1430   -2.0913    2.6414 H         1 <0>         0.4102
     37 H7         -4.2052   -2.7881    1.7507 H         1 <0>         0.3998
     38 H8         -4.3132   -3.1718    0.1186 H         1 <0>         0.4202
     39 H9          1.5868   -2.4087   -2.2733 H         1 <0>         0.1618
     40 H10         3.5370   -4.6290   -2.5022 H         1 <0>         0.1546
     41 H11         6.7542   -1.9673   -3.5692 H         1 <0>         0.1742
     42 H12         7.8506   -3.7221   -4.1699 H         1 <0>         0.3964
     43 H13         8.4657   -6.4375   -3.6957 H         1 <0>         0.0767
     44 H14         7.7993   -6.2922   -5.3398 H         1 <0>         0.0657
     45 H15         9.5117   -4.5830   -5.8827 H         1 <0>         0.0804
     46 H16        10.1781   -4.7283   -4.2386 H         1 <0>         0.0811
     47 H17        11.0241   -5.8890   -7.5218 H         1 <0>         0.1768
     48 H18        11.9460   -9.2627   -5.1087 H         1 <0>         0.2090
     49 H19         3.5418    1.2076    1.1130 H         1 <0>         0.4189
@<TRIPOS>BOND
     1    1    6 ar
     2    1    2 ar
     3    1   33 1
     4    2    3 ar
     5    2   34 1
     6    3   32 1
     7    3    4 ar
     8    4    5 ar
     9    4   11 1
    10    5    6 ar
    11    5   35 1
    12    6    7 1
    13    7    8 am
    14    7   36 1
    15    8    9 2
    16    8   10 am
    17   10   37 1
    18   10   38 1
    19   11   12 2
    20   11   30 1
    21   12   13 1
    22   12   39 1
    23   13   17 1
    24   13   14 2
    25   14   15 1
    26   14   40 1
    27   15   16 2
    28   15   19 1
    29   16   17 1
    30   16   41 1
    31   17   18 1
    32   19   20 2
    33   19   21 am
    34   21   22 1
    35   21   42 1
    36   22   23 1
    37   22   43 1
    38   22   44 1
    39   23   45 1
    40   23   46 1
    41   23   24 1
    42   24   28 1
    43   24   25 2
    44   25   47 1
    45   25   26 1
    46   26   27 1
    47   26   29 1
    48   27   48 1
    49   27   28 2
    50   30   31 2
    51   30   32 am
    52   32   49 1
@<TRIPOS>MOLECULE
CHEMBL228749
   49    52     0     0     0
SMALL
USER_CHARGES

@<TRIPOS>ATOM
      1 C1         -0.1860   -0.3007    2.3766 C.ar      1 <0>        -0.1103
      2 C2          1.0113    0.3533    2.1709 C.ar      1 <0>        -0.1118
      3 C3          1.8240    0.0042    1.0982 C.ar      1 <0>         0.1211
      4 C4          1.4115   -1.0179    0.2322 C.ar      1 <0>        -0.0768
      5 C5          0.2040   -1.6746    0.4429 C.ar      1 <0>        -0.0714
      6 C6         -0.5946   -1.3143    1.5172 C.ar      1 <0>         0.1442
      7 N1         -1.8128   -1.9717    1.7372 N.am      1 <0>        -0.6837
      8 C7         -2.5253   -2.4376    0.6924 C.2       1 <0>         0.7074
      9 O1         -2.0179   -2.4982   -0.4109 O.2       1 <0>        -0.5742
     10 N2         -3.8004   -2.8364    0.8705 N.am      1 <0>        -0.8597
     11 C8          2.4730   -1.1521   -0.7905 C.2       1 <0>        -0.1814
     12 C9          2.5079   -2.0319   -1.8537 C.2       1 <0>         0.0763
     13 C10         3.7478   -2.4393   -2.3926 C.2       1 <0>        -0.0205
     14 C11         4.1278   -3.7392   -2.6624 C.2       1 <0>        -0.0780
     15 C12         5.4364   -3.6814   -3.1877 C.2       1 <0>        -0.2332
     16 C13         5.8066   -2.3491   -3.2191 C.2       1 <0>         0.0626
     17 N3          4.7900   -1.6080   -2.7475 N.pl3     1 <0>        -0.4985
     18 H1          4.7897   -0.6414   -2.6672 H         1 <0>         0.4321
     19 C14         6.2562   -4.8273   -3.6213 C.2       1 <0>         0.5913
     20 O2          5.8129   -5.9569   -3.5415 O.2       1 <0>        -0.5406
     21 N4          7.4970   -4.6231   -4.1062 N.am      1 <0>        -0.7336
     22 C15         8.3117   -5.7619   -4.5371 C.3       1 <0>         0.1259
     23 C16         9.6657   -5.2586   -5.0413 C.3       1 <0>        -0.0535
     24 C17        10.5037   -6.4300   -5.4846 C.2       1 <0>        -0.0265
     25 C18        11.2789   -7.2044   -4.7016 C.2       1 <0>        -0.0144
     26 N5         11.8561   -8.1333   -5.4782 N.2       1 <0>        -0.4937
     27 C19        11.4680   -7.9640   -6.7125 C.2       1 <0>         0.1884
     28 N6         10.6186   -6.9151   -6.7594 N.pl3     1 <0>        -0.5666
     29 H2         10.1746   -6.5689   -7.5492 H         1 <0>         0.4197
     30 C20         3.4815   -0.1465   -0.4295 C.2       1 <0>         0.5662
     31 O3          4.5224    0.0688   -1.0245 O.2       1 <0>        -0.5247
     32 N7          3.0546    0.4942    0.6718 N.am      1 <0>        -0.6460
     33 H3         -0.8091   -0.0258    3.2148 H         1 <0>         0.1360
     34 H4          1.3182    1.1392    2.8452 H         1 <0>         0.1340
     35 H5         -0.1100   -2.4614   -0.2270 H         1 <0>         0.1606
     36 H6         -2.1430   -2.0913    2.6414 H         1 <0>         0.4104
     37 H7         -4.2052   -2.7881    1.7507 H         1 <0>         0.4000
     38 H8         -4.3132   -3.1718    0.1186 H         1 <0>         0.4203
     39 H9          1.5868   -2.4087   -2.2733 H         1 <0>         0.1621
     40 H10         3.5370   -4.6290   -2.5022 H         1 <0>         0.1549
     41 H11         6.7542   -1.9673   -3.5692 H         1 <0>         0.1739
     42 H12         7.8506   -3.7221   -4.1699 H         1 <0>         0.3980
     43 H13         8.4657   -6.4375   -3.6957 H         1 <0>         0.0751
     44 H14         7.7993   -6.2922   -5.3398 H         1 <0>         0.0665
     45 H15         9.5117   -4.5830   -5.8827 H         1 <0>         0.0775
     46 H16        10.1781   -4.7283   -4.2386 H         1 <0>         0.0957
     47 H17        11.4125   -7.0964   -3.6354 H         1 <0>         0.1702
     48 H18        11.7724   -8.5656   -7.5562 H         1 <0>         0.2093
     49 H19         3.5418    1.2076    1.1130 H         1 <0>         0.4192
@<TRIPOS>BOND
     1    1    6 ar
     2    1    2 ar
     3    1   33 1
     4    2    3 ar
     5    2   34 1
     6    3   32 1
     7    3    4 ar
     8    4    5 ar
     9    4   11 1
    10    5    6 ar
    11    5   35 1
    12    6    7 1
    13    7    8 am
    14    7   36 1
    15    8    9 2
    16    8   10 am
    17   10   37 1
    18   10   38 1
    19   11   12 2
    20   11   30 1
    21   12   13 1
    22   12   39 1
    23   13   17 1
    24   13   14 2
    25   14   15 1
    26   14   40 1
    27   15   16 2
    28   15   19 1
    29   16   17 1
    30   16   41 1
    31   17   18 1
    32   19   20 2
    33   19   21 am
    34   21   22 1
    35   21   42 1
    36   22   23 1
    37   22   43 1
    38   22   44 1
    39   23   24 1
    40   23   45 1
    41   23   46 1
    42   24   28 1
    43   24   25 2
    44   25   26 1
    45   25   47 1
    46   26   27 2
    47   27   28 1
    48   27   48 1
    49   28   29 1
    50   30   31 2
    51   30   32 am
    52   32   49 1
@<TRIPOS>MOLECULE
CHEMBL388395
   55    58     0     0     0
SMALL
USER_CHARGES

@<TRIPOS>ATOM
      1 C1         -1.3771    2.9250    1.6266 C.3       1 <0>        -0.0520
      2 N1         -0.6592    1.6890    1.2876 N.4       1 <0>        -0.3790
      3 C2          0.1296    1.9001    0.0665 C.3       1 <0>        -0.0477
      4 C3          0.2374    1.3246    2.3928 C.3       1 <0>         0.0023
      5 C4          0.8951   -0.0582    2.1425 C.3       1 <0>        -0.1458
      6 C5          1.1935   -0.5624    3.5702 C.3       1 <0>         0.0918
      7 N2          0.2930    0.1557    4.4839 N.am      1 <0>        -0.6230
      8 C6         -0.5629    1.0578    3.6920 C.3       1 <0>         0.0991
      9 C7          0.2555    0.0124    5.8235 C.2       1 <0>         0.6166
     10 O1         -0.5346    0.6608    6.4825 O.2       1 <0>        -0.5233
     11 C8          1.1721   -0.9305    6.4899 C.2       1 <0>        -0.2389
     12 C9          1.2445   -1.1902    7.8752 C.2       1 <0>        -0.0776
     13 C10         2.2360   -2.1346    8.0534 C.2       1 <0>        -0.0065
     14 N3          2.7566   -2.4453    6.8142 N.pl3     1 <0>        -0.4959
     15 H1          3.4687   -3.0826    6.6479 H         1 <0>         0.4349
     16 C11         2.1175   -1.7300    5.8734 C.2       1 <0>         0.0469
     17 C12         2.6457   -2.6852    9.2874 C.2       1 <0>         0.0636
     18 C13         2.7945   -4.0514    9.4183 C.2       1 <0>        -0.1696
     19 C14         2.6439   -4.8593   10.6493 C.ar      1 <0>        -0.0814
     20 C15         2.3314   -4.5389   11.9663 C.ar      1 <0>        -0.0562
     21 C16         2.2638   -5.5432   12.9190 C.ar      1 <0>         0.1509
     22 C17         2.5080   -6.8630   12.5550 C.ar      1 <0>        -0.1011
     23 C18         2.8182   -7.1847   11.2501 C.ar      1 <0>        -0.1093
     24 C19         2.8901   -6.1890   10.2819 C.ar      1 <0>         0.1235
     25 N4          3.1776   -6.2406    8.9214 N.am      1 <0>        -0.6425
     26 C20         3.1302   -5.0186    8.3645 C.2       1 <0>         0.5680
     27 O2          3.3331   -4.7579    7.1920 O.2       1 <0>        -0.5291
     28 N5          1.9500   -5.2289   14.2483 N.am      1 <0>        -0.6873
     29 C21         1.0070   -4.3044   14.5176 C.2       1 <0>         0.7056
     30 O3          0.3427   -3.8328   13.6150 O.2       1 <0>        -0.5756
     31 N6          0.8003   -3.9027   15.7874 N.am      1 <0>        -0.8597
     32 H2         -0.6592    3.7284    1.7921 H         1 <0>         0.1249
     33 H3         -2.0423    3.1954    0.8066 H         1 <0>         0.1282
     34 H4         -1.9624    2.7683    2.5327 H         1 <0>         0.1251
     35 H5          0.8474    2.7035    0.2320 H         1 <0>         0.1238
     36 H6          0.6623    0.9831   -0.1851 H         1 <0>         0.1238
     37 H7         -0.5356    2.1705   -0.7536 H         1 <0>         0.1275
     38 H8          0.9928    2.0944    2.5503 H         1 <0>         0.1562
     39 H9          0.2021   -0.7284    1.6338 H         1 <0>         0.1009
     40 H10         1.8171    0.0510    1.5715 H         1 <0>         0.1139
     41 H11         1.0060   -1.6344    3.6315 H         1 <0>         0.0935
     42 H12         2.2308   -0.3500    3.8291 H         1 <0>         0.0916
     43 H13        -0.7327    1.9899    4.2311 H         1 <0>         0.1069
     44 H14        -1.5119    0.5742    3.4605 H         1 <0>         0.0855
     45 H15         0.6407   -0.7370    8.6476 H         1 <0>         0.1576
     46 H16         2.3119   -1.7704    4.8118 H         1 <0>         0.1804
     47 H17         2.8427   -2.0374   10.1288 H         1 <0>         0.1625
     48 H18         2.1427   -3.5128   12.2451 H         1 <0>         0.1391
     49 H19         2.4547   -7.6426   13.3005 H         1 <0>         0.1395
     50 H20         3.0059   -8.2132   10.9794 H         1 <0>         0.1369
     51 H21         3.3826   -7.0552    8.4362 H         1 <0>         0.4216
     52 H22         2.4115   -5.6767   14.9745 H         1 <0>         0.4106
     53 H23         1.3302   -4.2789   16.5075 H         1 <0>         0.4007
     54 H24         0.1216   -3.2373   15.9812 H         1 <0>         0.4208
     55 H25        -1.3237    0.9453    1.1344 H         1 <0>         0.4268
@<TRIPOS>BOND
     1    1    2 1
     2    1   32 1
     3    1   33 1
     4    1   34 1
     5    2    3 1
     6    2    4 1
     7    2   55 1
     8    3   35 1
     9    3   36 1
    10    3   37 1
    11    4    8 1
    12    4    5 1
    13    4   38 1
    14    5    6 1
    15    5   39 1
    16    5   40 1
    17    6    7 1
    18    6   41 1
    19    6   42 1
    20    7    8 1
    21    7    9 am
    22    8   43 1
    23    8   44 1
    24    9   10 2
    25    9   11 1
    26   11   16 2
    27   11   12 1
    28   12   13 2
    29   12   45 1
    30   13   14 1
    31   13   17 1
    32   14   15 1
    33   14   16 1
    34   16   46 1
    35   17   18 2
    36   17   47 1
    37   18   26 1
    38   18   19 1
    39   19   24 ar
    40   19   20 ar
    41   20   21 ar
    42   20   48 1
    43   21   22 ar
    44   21   28 1
    45   22   23 ar
    46   22   49 1
    47   23   24 ar
    48   23   50 1
    49   24   25 1
    50   25   26 am
    51   25   51 1
    52   26   27 2
    53   28   29 am
    54   28   52 1
    55   29   30 2
    56   29   31 am
    57   31   53 1
    58   31   54 1
@<TRIPOS>MOLECULE
CHEMBL388395
   55    58     0     0     0
SMALL
USER_CHARGES

@<TRIPOS>ATOM
      1 C1          0.3763   -0.3021   -0.9850 C.3       1 <0>        -0.0478
      2 N1          0.8652   -1.6809   -0.8519 N.4       1 <0>        -0.3787
      3 C2          2.1093   -1.8355   -1.6176 C.3       1 <0>        -0.0520
      4 C3          1.1223   -1.9747    0.5643 C.3       1 <0>         0.0020
      5 C4         -0.1975   -1.9777    1.3801 C.3       1 <0>        -0.1457
      6 C5          0.1268   -2.9198    2.5587 C.3       1 <0>         0.0918
      7 N2          1.2420   -3.7796    2.1361 N.am      1 <0>        -0.6230
      8 C6          1.6058   -3.4346    0.7497 C.3       1 <0>         0.0993
      9 C7          1.8344   -4.7257    2.8914 C.2       1 <0>         0.6166
     10 O1          2.7530   -5.3799    2.4365 O.2       1 <0>        -0.5233
     11 C8          1.3686   -4.9674    4.2690 C.2       1 <0>        -0.2390
     12 C9          1.8916   -5.9143    5.1756 C.2       1 <0>        -0.0775
     13 C10         1.1599   -5.7981    6.3410 C.2       1 <0>        -0.0067
     14 N3          0.2159   -4.8093    6.1550 N.pl3     1 <0>        -0.4959
     15 H1         -0.4331   -4.5211    6.8157 H         1 <0>         0.4349
     16 C11         0.3415   -4.3046    4.9162 C.2       1 <0>         0.0470
     17 C12         1.3448   -6.5584    7.5163 C.2       1 <0>         0.0639
     18 C13         1.4025   -5.9289    8.7437 C.2       1 <0>        -0.1699
     19 C14         2.1213   -6.3830    9.9551 C.ar      1 <0>        -0.0813
     20 C15         2.9068   -7.4963   10.2351 C.ar      1 <0>        -0.0563
     21 C16         3.4574   -7.6472   11.4980 C.ar      1 <0>         0.1510
     22 C17         3.2228   -6.6876   12.4768 C.ar      1 <0>        -0.1012
     23 C18         2.4445   -5.5822   12.2031 C.ar      1 <0>        -0.1093
     24 C19         1.8845   -5.4158   10.9410 C.ar      1 <0>         0.1234
     25 N4          1.0766   -4.4137   10.4123 N.am      1 <0>        -0.6426
     26 C20         0.7688   -4.6602    9.1277 C.2       1 <0>         0.5680
     27 O2          0.0821   -3.9566    8.4085 O.2       1 <0>        -0.5292
     28 N5          4.2498   -8.7662   11.7885 N.am      1 <0>        -0.6873
     29 C21         5.1210   -9.2315   10.8715 C.2       1 <0>         0.7056
     30 O3          5.3099   -8.6113    9.8428 O.2       1 <0>        -0.5757
     31 N6          5.7829  -10.3841   11.0947 N.am      1 <0>        -0.8596
     32 H2          1.1273    0.3884   -0.6013 H         1 <0>         0.1237
     33 H3          0.1856   -0.0841   -2.0359 H         1 <0>         0.1275
     34 H4         -0.5468   -0.1874   -0.4168 H         1 <0>         0.1238
     35 H5          2.8603   -1.1450   -1.2339 H         1 <0>         0.1248
     36 H6          2.4720   -2.8586   -1.5188 H         1 <0>         0.1252
     37 H7          1.9185   -1.6175   -2.6685 H         1 <0>         0.1283
     38 H8          1.8397   -1.2693    0.9835 H         1 <0>         0.1560
     39 H9         -0.4306   -0.9757    1.7403 H         1 <0>         0.1138
     40 H10        -1.0187   -2.3750    0.7836 H         1 <0>         0.1010
     41 H11         0.4193   -2.3352    3.4309 H         1 <0>         0.0915
     42 H12        -0.7440   -3.5314    2.7948 H         1 <0>         0.0938
     43 H13         1.0960   -4.0951    0.0482 H         1 <0>         0.0858
     44 H14         2.6856   -3.4967    0.6142 H         1 <0>         0.1067
     45 H15         2.7070   -6.5984    4.9930 H         1 <0>         0.1576
     46 H16        -0.2617   -3.5142    4.4945 H         1 <0>         0.1804
     47 H17         1.4411   -7.6323    7.4552 H         1 <0>         0.1625
     48 H18         3.0864   -8.2395    9.4724 H         1 <0>         0.1391
     49 H19         3.6534   -6.8090   13.4598 H         1 <0>         0.1395
     50 H20         2.2693   -4.8437   12.9713 H         1 <0>         0.1368
     51 H21         0.7768   -3.6350   10.9069 H         1 <0>         0.4215
     52 H22         4.1710   -9.2058   12.6496 H         1 <0>         0.4106
     53 H23         5.6323  -10.8788   11.9154 H         1 <0>         0.4007
     54 H24         6.4100  -10.7189   10.4347 H         1 <0>         0.4208
     55 H25         0.1700   -2.3201   -1.2071 H         1 <0>         0.4267
@<TRIPOS>BOND
     1    1    2 1
     2    1   32 1
     3    1   33 1
     4    1   34 1
     5    2    3 1
     6    2    4 1
     7    2   55 1
     8    3   35 1
     9    3   36 1
    10    3   37 1
    11    4    8 1
    12    4    5 1
    13    4   38 1
    14    5    6 1
    15    5   39 1
    16    5   40 1
    17    6    7 1
    18    6   41 1
    19    6   42 1
    20    7    8 1
    21    7    9 am
    22    8   43 1
    23    8   44 1
    24    9   10 2
    25    9   11 1
    26   11   16 2
    27   11   12 1
    28   12   13 2
    29   12   45 1
    30   13   14 1
    31   13   17 1
    32   14   15 1
    33   14   16 1
    34   16   46 1
    35   17   18 2
    36   17   47 1
    37   18   26 1
    38   18   19 1
    39   19   24 ar
    40   19   20 ar
    41   20   21 ar
    42   20   48 1
    43   21   22 ar
    44   21   28 1
    45   22   23 ar
    46   22   49 1
    47   23   24 ar
    48   23   50 1
    49   24   25 1
    50   25   26 am
    51   25   51 1
    52   26   27 2
    53   28   29 am
    54   28   52 1
    55   29   30 2
    56   29   31 am
    57   31   53 1
    58   31   54 1
@<TRIPOS>MOLECULE
CHEMBL494089
   59    62     0     0     0
SMALL
USER_CHARGES

@<TRIPOS>ATOM
      1 C1         -0.0187    1.5258    0.0104 C.3       1 <0>        -0.1656
      2 C2          0.0021   -0.0041    0.0020 C.3       1 <0>         0.0991
      3 N1          0.6878   -0.4765   -1.2033 N.pl3     1 <0>        -0.4455
      4 C3          0.1084   -0.7452   -2.4220 C.ar      1 <0>         0.0734
      5 C4         -1.1885   -0.6848   -2.9333 C.ar      1 <0>         0.0979
      6 C5         -1.4068   -1.0423   -4.2530 C.ar      1 <0>         0.0255
      7 N2         -0.4156   -1.4373   -5.0310 N.ar      1 <0>        -0.4288
      8 C6          0.8360   -1.5144   -4.6003 C.ar      1 <0>         0.2963
      9 C7          1.1491   -1.1685   -3.2692 C.ar      1 <0>         0.0642
     10 N3          2.2847   -1.1401   -2.5504 N.2       1 <0>        -0.4358
     11 C8          2.0279   -0.7287   -1.3319 C.2       1 <0>         0.3425
     12 C9          3.0324   -0.5655   -0.2583 C.2       1 <0>         0.1311
     13 C10         4.4724   -0.8253   -0.3802 C.2       1 <0>         0.3646
     14 N4          5.0335   -0.5707    0.7697 N.2       1 <0>        -0.3434
     15 O1          4.0212   -0.1472    1.6654 O.3       1 <0>         0.0494
     16 N5          2.7917   -0.1594    0.9619 N.2       1 <0>        -0.2485
     17 N6          5.1251   -1.2670   -1.5235 N.pl3     1 <0>        -0.7999
     18 C11         1.8718   -1.9500   -5.4881 C.1       1 <0>        -0.1208
     19 C12         2.7209   -2.3071   -6.2159 C.1       1 <0>        -0.0802
     20 C13         3.7856   -2.7549   -7.1284 C.3       1 <0>         0.2403
     21 C14         5.1250   -2.7540   -6.3888 C.3       1 <0>        -0.1769
     22 C15         3.4749   -4.1704   -7.6190 C.3       1 <0>        -0.1771
     23 O2          3.8585   -1.8683   -8.2468 O.3       1 <0>        -0.5533
     24 O3         -2.2219   -0.2814   -2.1476 O.3       1 <0>        -0.3053
     25 C16        -3.5183   -0.2475   -2.7478 C.3       1 <0>         0.0602
     26 C17        -4.5450    0.2275   -1.7176 C.3       1 <0>        -0.1100
     27 H1         -4.4926   -0.4065   -0.8325 H         1 <0>         0.1080
     28 C18        -4.2441    1.6772   -1.3267 C.3       1 <0>        -0.1348
     29 C19        -5.3219    2.1680   -0.3558 C.3       1 <0>        -0.1475
     30 C20        -6.6969    2.0173   -1.0100 C.3       1 <0>        -0.0100
     31 N7         -6.9357    0.6061   -1.3358 N.4       1 <0>        -0.5023
     32 C21        -5.9489    0.1476   -2.3210 C.3       1 <0>        -0.0035
     33 H2          1.0039    1.9031    0.0027 H         1 <0>         0.0658
     34 H3         -0.5459    1.8868   -0.8726 H         1 <0>         0.0628
     35 H4         -0.5289    1.8773    0.9072 H         1 <0>         0.0853
     36 H5          0.5293   -0.3651    0.8851 H         1 <0>         0.1095
     37 H6         -1.0205   -0.3814    0.0098 H         1 <0>         0.1024
     38 H7         -2.4085   -0.9976   -4.6543 H         1 <0>         0.1718
     39 H8          4.6220   -1.4309   -2.3365 H         1 <0>         0.4312
     40 H9          6.0842   -1.4116   -1.5092 H         1 <0>         0.4212
     41 H10         5.0694   -3.4303   -5.5357 H         1 <0>         0.0725
     42 H11         5.9134   -3.0856   -7.0645 H         1 <0>         0.0747
     43 H12         5.3464   -1.7456   -6.0392 H         1 <0>         0.0708
     44 H13         2.5207   -4.1710   -8.1459 H         1 <0>         0.0706
     45 H14         4.2633   -4.5020   -8.2948 H         1 <0>         0.0744
     46 H15         3.4193   -4.8466   -6.7660 H         1 <0>         0.0730
     47 H16         4.5403   -2.1031   -8.8910 H         1 <0>         0.3893
     48 H17        -3.5089    0.4388   -3.5945 H         1 <0>         0.0809
     49 H18        -3.7852   -1.2465   -3.0928 H         1 <0>         0.0809
     50 H19        -3.2679    1.7296   -0.8445 H         1 <0>         0.1002
     51 H20        -4.2451    2.3031   -2.2191 H         1 <0>         0.0849
     52 H21        -5.2864    1.5744    0.5577 H         1 <0>         0.0898
     53 H22        -5.1458    3.2167   -0.1163 H         1 <0>         0.1153
     54 H23        -7.4666    2.3660   -0.3215 H         1 <0>         0.1359
     55 H24        -6.7314    2.6114   -1.9232 H         1 <0>         0.1322
     56 H25        -6.8551    0.0502   -0.4977 H         1 <0>         0.4295
     57 H26        -5.9999    0.7811   -3.2066 H         1 <0>         0.1367
     58 H27        -6.1659   -0.8835   -2.6000 H         1 <0>         0.1389
     59 H28        -7.8638    0.5026   -1.7178 H         1 <0>         0.4360
@<TRIPOS>BOND
     1    1    2 1
     2    1   33 1
     3    1   34 1
     4    1   35 1
     5    2    3 1
     6    2   36 1
     7    2   37 1
     8    3   11 1
     9    3    4 1
    10    4    9 ar
    11    4    5 ar
    12    5    6 ar
    13    5   24 1
    14    6    7 ar
    15    6   38 1
    16    7    8 ar
    17    8    9 ar
    18    8   18 1
    19    9   10 1
    20   10   11 2
    21   11   12 1
    22   12   16 2
    23   12   13 1
    24   13   14 2
    25   13   17 1
    26   14   15 1
    27   15   16 1
    28   17   39 1
    29   17   40 1
    30   18   19 3
    31   19   20 1
    32   20   21 1
    33   20   22 1
    34   20   23 1
    35   21   41 1
    36   21   42 1
    37   21   43 1
    38   22   44 1
    39   22   45 1
    40   22   46 1
    41   23   47 1
    42   24   25 1
    43   25   26 1
    44   25   48 1
    45   25   49 1
    46   26   27 1
    47   26   32 1
    48   26   28 1
    49   28   29 1
    50   28   50 1
    51   28   51 1
    52   29   30 1
    53   29   52 1
    54   29   53 1
    55   30   31 1
    56   30   54 1
    57   30   55 1
    58   31   32 1
    59   31   56 1
    60   31   59 1
    61   32   57 1
    62   32   58 1
@<TRIPOS>MOLECULE
CHEMBL522857
   56    59     0     0     0
SMALL
USER_CHARGES

@<TRIPOS>ATOM
      1 C1          0.1632    1.6817   -0.3491 C.3       1 <0>        -0.1654
      2 C2          0.0719    0.1742   -0.1044 C.3       1 <0>         0.0979
      3 N1          0.6895   -0.5406   -1.2242 N.pl3     1 <0>        -0.4442
      4 C3          0.0603   -0.9605   -2.3735 C.ar      1 <0>         0.0742
      5 C4         -1.2416   -0.8859   -2.8698 C.ar      1 <0>         0.0926
      6 C5         -1.5199   -1.4374   -4.1090 C.ar      1 <0>         0.0209
      7 N2         -0.5810   -2.0292   -4.8244 N.ar      1 <0>        -0.4302
      8 C6          0.6726   -2.1299   -4.4042 C.ar      1 <0>         0.2983
      9 C7          1.0448   -1.5953   -3.1531 C.ar      1 <0>         0.0636
     10 N3          2.1978   -1.5362   -2.4646 N.2       1 <0>        -0.4379
     11 C8          2.0037   -0.9120   -1.3277 C.2       1 <0>         0.3465
     12 C9          3.0452   -0.6521   -0.3098 C.2       1 <0>         0.1282
     13 C10         4.4588   -1.0376   -0.4068 C.2       1 <0>         0.3642
     14 N4          5.0669   -0.6413    0.6772 N.2       1 <0>        -0.3414
     15 O1          4.1120   -0.0006    1.5043 O.3       1 <0>         0.0518
     16 N5          2.8669   -0.0341    0.8295 N.2       1 <0>        -0.2460
     17 N6          5.0473   -1.7094   -1.4701 N.pl3     1 <0>        -0.8008
     18 C11         1.6501   -2.7831   -5.2217 C.1       1 <0>        -0.1260
     19 C12         2.4516   -3.3185   -5.8919 C.1       1 <0>        -0.1180
     20 C13         3.4565   -3.9899   -6.7323 C.3       1 <0>         0.2394
     21 C14         4.8112   -3.9700   -6.0216 C.3       1 <0>        -0.1762
     22 C15         3.0305   -5.4388   -6.9775 C.3       1 <0>        -0.1390
     23 O2          3.5646   -3.3071   -7.9829 O.3       1 <0>        -0.5439
     24 O3         -2.2219   -0.2814   -2.1476 O.3       1 <0>        -0.2936
     25 C16        -3.4982   -0.1423   -2.7752 C.3       1 <0>         0.0716
     26 C17        -4.3104   -1.4249   -2.5738 C.3       1 <0>        -0.1821
     27 C18        -5.7037   -1.2400   -3.1788 C.3       1 <0>        -0.0030
     28 N7         -6.3835   -0.1196   -2.5177 N.4       1 <0>        -0.5079
     29 C19        -5.6483    1.1261   -2.7670 C.3       1 <0>        -0.0016
     30 C20        -4.2529    1.0323   -2.1462 C.3       1 <0>        -0.1457
     31 H1          1.2100    1.9734   -0.4332 H         1 <0>         0.0656
     32 H2         -0.3592    1.9322   -1.2724 H         1 <0>         0.0623
     33 H3         -0.2963    2.2135    0.4841 H         1 <0>         0.0877
     34 H4          0.5942   -0.0763    0.8189 H         1 <0>         0.1107
     35 H5         -0.9750   -0.1175   -0.0202 H         1 <0>         0.1034
     36 H6         -2.5258   -1.3827   -4.4983 H         1 <0>         0.1694
     37 H7          4.5125   -1.9655   -2.2377 H         1 <0>         0.4301
     38 H8          5.9933   -1.9225   -1.4452 H         1 <0>         0.4216
     39 H9          4.7288   -4.4909   -5.0676 H         1 <0>         0.0739
     40 H10         5.5553   -4.4672   -6.6438 H         1 <0>         0.0811
     41 H11         5.1148   -2.9378   -5.8469 H         1 <0>         0.0641
     42 H12         2.0653   -5.4530   -7.4839 H         1 <0>         0.0682
     43 H13         3.7746   -5.9360   -7.5998 H         1 <0>         0.0794
     44 H14         2.9480   -5.9597   -6.0236 H         1 <0>         0.0773
     45 H15         3.8316   -2.3811   -7.9036 H         1 <0>         0.3833
     46 H16        -3.3622    0.0407   -3.8411 H         1 <0>         0.0965
     47 H17        -3.8067   -2.2560   -3.0672 H         1 <0>         0.1210
     48 H18        -4.4013   -1.6345   -1.5080 H         1 <0>         0.1043
     49 H19        -5.6117   -1.0307   -4.2445 H         1 <0>         0.1361
     50 H20        -6.2846   -2.1514   -3.0372 H         1 <0>         0.1427
     51 H21        -7.3208   -0.0344   -2.8814 H         1 <0>         0.4369
     52 H22        -5.5575    1.2850   -3.8416 H         1 <0>         0.1362
     53 H23        -6.1884    1.9616   -2.3215 H         1 <0>         0.1446
     54 H24        -4.3426    0.8737   -1.0715 H         1 <0>         0.1029
     55 H25        -3.7081    1.9575   -2.3340 H         1 <0>         0.1235
     56 H26        -6.4247   -0.2915   -1.5243 H         1 <0>         0.4307
@<TRIPOS>BOND
     1    1    2 1
     2    1   31 1
     3    1   32 1
     4    1   33 1
     5    2    3 1
     6    2   34 1
     7    2   35 1
     8    3   11 1
     9    3    4 1
    10    4    9 ar
    11    4    5 ar
    12    5    6 ar
    13    5   24 1
    14    6    7 ar
    15    6   36 1
    16    7    8 ar
    17    8    9 ar
    18    8   18 1
    19    9   10 1
    20   10   11 2
    21   11   12 1
    22   12   16 2
    23   12   13 1
    24   13   14 2
    25   13   17 1
    26   14   15 1
    27   15   16 1
    28   17   37 1
    29   17   38 1
    30   18   19 3
    31   19   20 1
    32   20   21 1
    33   20   22 1
    34   20   23 1
    35   21   39 1
    36   21   40 1
    37   21   41 1
    38   22   42 1
    39   22   43 1
    40   22   44 1
    41   23   45 1
    42   24   25 1
    43   25   30 1
    44   25   26 1
    45   25   46 1
    46   26   27 1
    47   26   47 1
    48   26   48 1
    49   27   28 1
    50   27   49 1
    51   27   50 1
    52   28   29 1
    53   28   51 1
    54   28   56 1
    55   29   30 1
    56   29   52 1
    57   29   53 1
    58   30   54 1
    59   30   55 1
@<TRIPOS>MOLECULE
CHEMBL494088
   56    59     0     0     0
SMALL
USER_CHARGES

@<TRIPOS>ATOM
      1 C1         -0.0187    1.5258    0.0104 C.3       1 <0>        -0.1661
      2 C2          0.0021   -0.0041    0.0020 C.3       1 <0>         0.0996
      3 N1          0.6878   -0.4765   -1.2033 N.pl3     1 <0>        -0.4454
      4 C3          0.1084   -0.7452   -2.4220 C.ar      1 <0>         0.0734
      5 C4         -1.1885   -0.6848   -2.9333 C.ar      1 <0>         0.0967
      6 C5         -1.4068   -1.0423   -4.2530 C.ar      1 <0>         0.0248
      7 N2         -0.4156   -1.4373   -5.0310 N.ar      1 <0>        -0.4294
      8 C6          0.8360   -1.5144   -4.6003 C.ar      1 <0>         0.2975
      9 C7          1.1491   -1.1685   -3.2692 C.ar      1 <0>         0.0644
     10 N3          2.2847   -1.1401   -2.5504 N.2       1 <0>        -0.4360
     11 C8          2.0279   -0.7287   -1.3319 C.2       1 <0>         0.3436
     12 C9          3.0324   -0.5655   -0.2583 C.2       1 <0>         0.1304
     13 C10         4.4724   -0.8253   -0.3802 C.2       1 <0>         0.3645
     14 N4          5.0335   -0.5707    0.7697 N.2       1 <0>        -0.3431
     15 O1          4.0212   -0.1472    1.6654 O.3       1 <0>         0.0500
     16 N5          2.7917   -0.1594    0.9619 N.2       1 <0>        -0.2479
     17 N6          5.1251   -1.2670   -1.5235 N.pl3     1 <0>        -0.8000
     18 C11         1.8718   -1.9500   -5.4881 C.1       1 <0>        -0.1218
     19 C12         2.7209   -2.3071   -6.2159 C.1       1 <0>        -0.0789
     20 C13         3.7856   -2.7549   -7.1284 C.3       1 <0>         0.2401
     21 C14         5.1250   -2.7540   -6.3888 C.3       1 <0>        -0.1769
     22 C15         3.4749   -4.1704   -7.6190 C.3       1 <0>        -0.1771
     23 O2          3.8585   -1.8683   -8.2468 O.3       1 <0>        -0.5531
     24 O3         -2.2219   -0.2814   -2.1476 O.3       1 <0>        -0.3051
     25 C16        -3.5183   -0.2475   -2.7478 C.3       1 <0>         0.0548
     26 C17        -4.5450    0.2275   -1.7176 C.3       1 <0>        -0.1103
     27 C18        -4.7437   -0.8465   -0.6235 C.3       1 <0>        -0.1424
     28 C19        -6.2693   -0.7928   -0.3583 C.3       1 <0>        -0.0050
     29 N7         -6.8412   -0.5615   -1.7095 N.4       1 <0>        -0.5173
     30 C20        -5.9272    0.3908   -2.3766 C.3       1 <0>        -0.0007
     31 H1          1.0039    1.9031    0.0027 H         1 <0>         0.0656
     32 H2         -0.5459    1.8868   -0.8726 H         1 <0>         0.0634
     33 H3         -0.5289    1.8773    0.9072 H         1 <0>         0.0863
     34 H4          0.5293   -0.3651    0.8851 H         1 <0>         0.1096
     35 H5         -1.0205   -0.3814    0.0098 H         1 <0>         0.1018
     36 H6         -2.4085   -0.9976   -4.6543 H         1 <0>         0.1707
     37 H7          4.6220   -1.4309   -2.3365 H         1 <0>         0.4311
     38 H8          6.0842   -1.4116   -1.5092 H         1 <0>         0.4213
     39 H9          5.0694   -3.4303   -5.5357 H         1 <0>         0.0723
     40 H10         5.9134   -3.0856   -7.0645 H         1 <0>         0.0748
     41 H11         5.3464   -1.7456   -6.0392 H         1 <0>         0.0709
     42 H12         2.5207   -4.1710   -8.1459 H         1 <0>         0.0706
     43 H13         4.2633   -4.5020   -8.2948 H         1 <0>         0.0746
     44 H14         3.4193   -4.8466   -6.7660 H         1 <0>         0.0728
     45 H15         4.5403   -2.1031   -8.8910 H         1 <0>         0.3895
     46 H16        -3.5089    0.4388   -3.5945 H         1 <0>         0.0837
     47 H17        -3.7852   -1.2465   -3.0928 H         1 <0>         0.0765
     48 H18        -4.2248    1.1691   -1.2717 H         1 <0>         0.1262
     49 H19        -4.4505   -1.8300   -0.9907 H         1 <0>         0.1013
     50 H20        -4.1864   -0.5878    0.2767 H         1 <0>         0.1212
     51 H21        -6.6220   -1.7391    0.0519 H         1 <0>         0.1411
     52 H22        -6.5148    0.0327    0.3098 H         1 <0>         0.1389
     53 H23        -6.8774   -1.4282   -2.2250 H         1 <0>         0.4331
     54 H24        -6.2869    1.4103   -2.2372 H         1 <0>         0.1437
     55 H25        -5.8613    0.1596   -3.4398 H         1 <0>         0.1384
     56 H26        -7.7645   -0.1620   -1.6328 H         1 <0>         0.4374
@<TRIPOS>BOND
     1    1    2 1
     2    1   31 1
     3    1   32 1
     4    1   33 1
     5    2    3 1
     6    2   34 1
     7    2   35 1
     8    3   11 1
     9    3    4 1
    10    4    9 ar
    11    4    5 ar
    12    5    6 ar
    13    5   24 1
    14    6    7 ar
    15    6   36 1
    16    7    8 ar
    17    8    9 ar
    18    8   18 1
    19    9   10 1
    20   10   11 2
    21   11   12 1
    22   12   16 2
    23   12   13 1
    24   13   14 2
    25   13   17 1
    26   14   15 1
    27   15   16 1
    28   17   37 1
    29   17   38 1
    30   18   19 3
    31   19   20 1
    32   20   21 1
    33   20   22 1
    34   20   23 1
    35   21   39 1
    36   21   40 1
    37   21   41 1
    38   22   42 1
    39   22   43 1
    40   22   44 1
    41   23   45 1
    42   24   25 1
    43   25   26 1
    44   25   46 1
    45   25   47 1
    46   26   30 1
    47   26   27 1
    48   26   48 1
    49   27   28 1
    50   27   49 1
    51   27   50 1
    52   28   29 1
    53   28   51 1
    54   28   52 1
    55   29   30 1
    56   29   53 1
    57   29   56 1
    58   30   54 1
    59   30   55 1
@<TRIPOS>MOLECULE
CHEMBL494088
   56    59     0     0     0
SMALL
USER_CHARGES

@<TRIPOS>ATOM
      1 C1         -0.0187    1.5258    0.0104 C.3       1 <0>        -0.1652
      2 C2          0.0021   -0.0041    0.0020 C.3       1 <0>         0.0985
      3 N1          0.6878   -0.4765   -1.2033 N.pl3     1 <0>        -0.4455
      4 C3          0.1084   -0.7452   -2.4220 C.ar      1 <0>         0.0736
      5 C4         -1.1885   -0.6848   -2.9333 C.ar      1 <0>         0.0971
      6 C5         -1.4068   -1.0423   -4.2530 C.ar      1 <0>         0.0255
      7 N2         -0.4156   -1.4373   -5.0310 N.ar      1 <0>        -0.4291
      8 C6          0.8360   -1.5144   -4.6003 C.ar      1 <0>         0.2972
      9 C7          1.1491   -1.1685   -3.2692 C.ar      1 <0>         0.0642
     10 N3          2.2847   -1.1401   -2.5504 N.2       1 <0>        -0.4358
     11 C8          2.0279   -0.7287   -1.3319 C.2       1 <0>         0.3431
     12 C9          3.0324   -0.5655   -0.2583 C.2       1 <0>         0.1308
     13 C10         4.4724   -0.8253   -0.3802 C.2       1 <0>         0.3646
     14 N4          5.0335   -0.5707    0.7697 N.2       1 <0>        -0.3432
     15 O1          4.0212   -0.1472    1.6654 O.3       1 <0>         0.0497
     16 N5          2.7917   -0.1594    0.9619 N.2       1 <0>        -0.2483
     17 N6          5.1251   -1.2670   -1.5235 N.pl3     1 <0>        -0.7999
     18 C11         1.8718   -1.9500   -5.4881 C.1       1 <0>        -0.1215
     19 C12         2.7209   -2.3071   -6.2159 C.1       1 <0>        -0.0793
     20 C13         3.7856   -2.7549   -7.1284 C.3       1 <0>         0.2402
     21 C14         5.1250   -2.7540   -6.3888 C.3       1 <0>        -0.1770
     22 C15         3.4749   -4.1704   -7.6190 C.3       1 <0>        -0.1771
     23 O2          3.8585   -1.8683   -8.2468 O.3       1 <0>        -0.5533
     24 O3         -2.2219   -0.2814   -2.1476 O.3       1 <0>        -0.3058
     25 C16        -3.5183   -0.2475   -2.7478 C.3       1 <0>         0.0596
     26 C17        -4.5450    0.2275   -1.7176 C.3       1 <0>        -0.1080
     27 C18        -4.3640    1.7392   -1.4196 C.3       1 <0>        -0.1408
     28 C19        -5.7896    2.1417   -0.9667 C.3       1 <0>        -0.0096
     29 N7         -6.6962    1.3517   -1.8269 N.4       1 <0>        -0.5130
     30 C20        -5.9732    0.1561   -2.2977 C.3       1 <0>        -0.0045
     31 H1          1.0039    1.9031    0.0027 H         1 <0>         0.0657
     32 H2         -0.5459    1.8868   -0.8726 H         1 <0>         0.0623
     33 H3         -0.5289    1.8773    0.9072 H         1 <0>         0.0855
     34 H4          0.5293   -0.3651    0.8851 H         1 <0>         0.1098
     35 H5         -1.0205   -0.3814    0.0098 H         1 <0>         0.1030
     36 H6         -2.4085   -0.9976   -4.6543 H         1 <0>         0.1714
     37 H7          4.6220   -1.4309   -2.3365 H         1 <0>         0.4311
     38 H8          6.0842   -1.4116   -1.5092 H         1 <0>         0.4213
     39 H9          5.0694   -3.4303   -5.5357 H         1 <0>         0.0726
     40 H10         5.9134   -3.0856   -7.0645 H         1 <0>         0.0748
     41 H11         5.3464   -1.7456   -6.0392 H         1 <0>         0.0708
     42 H12         2.5207   -4.1710   -8.1459 H         1 <0>         0.0705
     43 H13         4.2633   -4.5020   -8.2948 H         1 <0>         0.0745
     44 H14         3.4193   -4.8466   -6.7660 H         1 <0>         0.0731
     45 H15         4.5403   -2.1031   -8.8910 H         1 <0>         0.3894
     46 H16        -3.5089    0.4388   -3.5945 H         1 <0>         0.0798
     47 H17        -3.7852   -1.2465   -3.0928 H         1 <0>         0.0838
     48 H18        -4.4709   -0.3601   -0.8025 H         1 <0>         0.1218
     49 H19        -3.6412    1.8955   -0.6188 H         1 <0>         0.1219
     50 H20        -4.0720    2.2821   -2.3185 H         1 <0>         0.1020
     51 H21        -5.9415    1.8847    0.0816 H         1 <0>         0.1370
     52 H22        -5.9508    3.2082   -1.1240 H         1 <0>         0.1403
     53 H23        -7.5079    1.0711   -1.2973 H         1 <0>         0.4358
     54 H24        -5.9314    0.1530   -3.3869 H         1 <0>         0.1378
     55 H25        -6.4737   -0.7442   -1.9411 H         1 <0>         0.1427
     56 H26        -6.9840    1.9080   -2.6180 H         1 <0>         0.4340
@<TRIPOS>BOND
     1    1    2 1
     2    1   31 1
     3    1   32 1
     4    1   33 1
     5    2    3 1
     6    2   34 1
     7    2   35 1
     8    3   11 1
     9    3    4 1
    10    4    9 ar
    11    4    5 ar
    12    5    6 ar
    13    5   24 1
    14    6    7 ar
    15    6   36 1
    16    7    8 ar
    17    8    9 ar
    18    8   18 1
    19    9   10 1
    20   10   11 2
    21   11   12 1
    22   12   16 2
    23   12   13 1
    24   13   14 2
    25   13   17 1
    26   14   15 1
    27   15   16 1
    28   17   37 1
    29   17   38 1
    30   18   19 3
    31   19   20 1
    32   20   21 1
    33   20   22 1
    34   20   23 1
    35   21   39 1
    36   21   40 1
    37   21   41 1
    38   22   42 1
    39   22   43 1
    40   22   44 1
    41   23   45 1
    42   24   25 1
    43   25   26 1
    44   25   46 1
    45   25   47 1
    46   26   30 1
    47   26   27 1
    48   26   48 1
    49   27   28 1
    50   27   49 1
    51   27   50 1
    52   28   29 1
    53   28   51 1
    54   28   52 1
    55   29   30 1
    56   29   53 1
    57   29   56 1
    58   30   54 1
    59   30   55 1
@<TRIPOS>MOLECULE
CHEMBL536485
   83    87     0     0     0
SMALL
USER_CHARGES

@<TRIPOS>ATOM
      1 C1          3.2706    4.2517    1.9092 C.3       1 <0>        -0.1663
      2 C2          2.9468    4.0718    0.4247 C.3       1 <0>        -0.0702
      3 C3          2.2036    5.3079   -0.0900 C.3       1 <0>        -0.1276
      4 C4          0.8698    5.4351    0.6515 C.3       1 <0>        -0.1508
      5 C5          0.0610    4.1504    0.4593 C.3       1 <0>        -0.0079
      6 N1          0.8135    3.0095    0.9948 N.4       1 <0>        -0.5057
      7 C6          2.0611    2.8376    0.2409 C.3       1 <0>         0.0913
      8 C7          2.7885    1.6183    0.7459 C.ar      1 <0>        -0.1768
      9 C8          2.4928    1.1090    1.9991 C.ar      1 <0>        -0.0700
     10 C9          3.1523   -0.0079    2.4748 C.ar      1 <0>        -0.1351
     11 C10         4.1179   -0.6298    1.6989 C.ar      1 <0>         0.2002
     12 C11         4.4231   -0.1199    0.4273 C.ar      1 <0>        -0.1989
     13 C12         3.7431    1.0105   -0.0453 C.ar      1 <0>         0.1815
     14 F1          4.0243    1.5073   -1.2697 F         1 <0>        -0.1118
     15 C13         5.4468   -0.7715   -0.4064 C.2       1 <0>         0.4488
     16 O1          5.1343   -1.6755   -1.1570 O.2       1 <0>        -0.4085
     17 C14         6.8561   -0.3260   -0.3309 C.ar      1 <0>        -0.1309
     18 C15         7.2361    0.6318    0.6112 C.ar      1 <0>        -0.0703
     19 C16         8.5483    1.0460    0.6816 C.ar      1 <0>        -0.0653
     20 C17         9.4977    0.5082   -0.1888 C.ar      1 <0>        -0.1065
     21 C18         9.1180   -0.4490   -1.1310 C.ar      1 <0>        -0.0938
     22 C19         7.8070   -0.8677   -1.1980 C.ar      1 <0>        -0.0611
     23 C20        10.9073    0.9534   -0.1129 C.2       1 <0>         0.5653
     24 O2         11.2380    1.7871    0.7072 O.2       1 <0>        -0.5130
     25 N2         11.8242    0.4341   -0.9533 N.am      1 <0>        -0.7257
     26 C21        13.2193    0.8747   -0.8783 C.3       1 <0>         0.1254
     27 H1         13.4757    1.0752    0.1620 H         1 <0>         0.1142
     28 C22        13.3872    2.1751   -1.7033 C.3       1 <0>        -0.1399
     29 C23        14.6846    2.8327   -1.3154 C.3       1 <0>        -0.1436
     30 C24        15.8758    2.4041   -2.1910 C.3       1 <0>        -0.0113
     31 N3         15.9088    0.9534   -2.4753 N.4       1 <0>        -0.4994
     32 C25        15.5779    0.1686   -1.3107 C.3       1 <0>        -0.0242
     33 C26        14.0832   -0.1825   -1.3889 C.3       1 <0>         0.1221
     34 H2         13.8220   -0.3766   -2.4292 H         1 <0>         0.1121
     35 N4         13.8455   -1.4014   -0.6117 N.am      1 <0>        -0.7222
     36 C27        14.1043   -2.6077   -1.1542 C.2       1 <0>         0.5727
     37 O3         14.5348   -2.6843   -2.2880 O.2       1 <0>        -0.5188
     38 C28        13.8640   -3.8404   -0.3683 C.ar      1 <0>        -0.1050
     39 C29        13.3636   -3.7750    0.9356 C.ar      1 <0>        -0.1427
     40 C30        13.1540   -4.9494    1.6323 C.ar      1 <0>         0.1044
     41 N5         13.4193   -6.1182    1.0839 N.ar      1 <0>        -0.4557
     42 C31        13.8919   -6.2246   -0.1420 C.ar      1 <0>         0.1075
     43 C32        14.1257   -5.1016   -0.9120 C.ar      1 <0>        -0.1094
     44 O4          4.7654   -1.7260    2.1666 O.3       1 <0>        -0.4826
     45 C33         4.2457    3.8905   -0.3632 C.3       1 <0>        -0.1512
     46 H3          3.7960    3.3699    2.2759 H         1 <0>         0.0741
     47 H4          3.9015    5.1310    2.0395 H         1 <0>         0.0883
     48 H5          2.3450    4.3824    2.4698 H         1 <0>         0.0548
     49 H6          2.8072    6.1974    0.0904 H         1 <0>         0.0996
     50 H7          2.0178    5.2027   -1.1589 H         1 <0>         0.0860
     51 H8          1.0574    5.5915    1.7138 H         1 <0>         0.0920
     52 H9          0.3102    6.2807    0.2517 H         1 <0>         0.1178
     53 H10        -0.8893    4.2376    0.9858 H         1 <0>         0.1403
     54 H11        -0.1262    3.9950   -0.6032 H         1 <0>         0.1344
     55 H12         1.0290    3.1763    1.9663 H         1 <0>         0.4241
     56 H13         1.8312    2.7102   -0.8170 H         1 <0>         0.1516
     57 H14         1.7415    1.5884    2.6091 H         1 <0>         0.1372
     58 H15         2.9151   -0.3973    3.4538 H         1 <0>         0.1602
     59 H16         6.5014    1.0483    1.2845 H         1 <0>         0.1346
     60 H17         8.8422    1.7872    1.4101 H         1 <0>         0.1478
     61 H18         9.8527   -0.8647   -1.8046 H         1 <0>         0.1332
     62 H19         7.5141   -1.6116   -1.9241 H         1 <0>         0.1461
     63 H20        11.5602   -0.2313   -1.6079 H         1 <0>         0.4065
     64 H21        13.4034    1.9338   -2.7661 H         1 <0>         0.0770
     65 H22        12.5581    2.8507   -1.4928 H         1 <0>         0.1057
     66 H23        14.5652    3.9133   -1.3932 H         1 <0>         0.1176
     67 H24        14.9062    2.5825   -0.2779 H         1 <0>         0.0919
     68 H25        15.8257    2.9438   -3.1367 H         1 <0>         0.1359
     69 H26        16.7996    2.6811   -1.6831 H         1 <0>         0.1362
     70 H27        15.2473    0.7475   -3.2088 H         1 <0>         0.4266
     71 H28        16.1718   -0.7453   -1.3009 H         1 <0>         0.1453
     72 H29        15.7747    0.7470   -0.4080 H         1 <0>         0.1447
     73 H30        13.5019   -1.3403    0.2933 H         1 <0>         0.4155
     74 H31        13.1447   -2.8207    1.3915 H         1 <0>         0.1359
     75 H32        12.7678   -4.9092    2.6401 H         1 <0>         0.1671
     76 H33        14.0954   -7.2030   -0.5515 H         1 <0>         0.1713
     77 H34        14.5086   -5.1964   -1.9174 H         1 <0>         0.1518
     78 H35         4.2943   -2.5565    2.0129 H         1 <0>         0.4160
     79 H36         4.7727    3.0093    0.0028 H         1 <0>         0.0640
     80 H37         4.0143    3.7624   -1.4206 H         1 <0>         0.0742
     81 H38         4.8754    4.7706   -0.2331 H         1 <0>         0.0797
     82 H39         0.2555    2.1726    0.9151 H         1 <0>         0.4326
     83 H40        16.8340    0.7013   -2.7891 H         1 <0>         0.4392
@<TRIPOS>BOND
     1    1    2 1
     2    1   46 1
     3    1   47 1
     4    1   48 1
     5    2    7 1
     6    2    3 1
     7    2   45 1
     8    3    4 1
     9    3   49 1
    10    3   50 1
    11    4    5 1
    12    4   51 1
    13    4   52 1
    14    5    6 1
    15    5   53 1
    16    5   54 1
    17    6    7 1
    18    6   55 1
    19    6   82 1
    20    7    8 1
    21    7   56 1
    22    8   13 ar
    23    8    9 ar
    24    9   10 ar
    25    9   57 1
    26   10   11 ar
    27   10   58 1
    28   11   12 ar
    29   11   44 1
    30   12   13 ar
    31   12   15 1
    32   13   14 1
    33   15   16 2
    34   15   17 1
    35   17   22 ar
    36   17   18 ar
    37   18   19 ar
    38   18   59 1
    39   19   20 ar
    40   19   60 1
    41   20   21 ar
    42   20   23 1
    43   21   22 ar
    44   21   61 1
    45   22   62 1
    46   23   24 2
    47   23   25 am
    48   25   26 1
    49   25   63 1
    50   26   27 1
    51   26   33 1
    52   26   28 1
    53   28   29 1
    54   28   64 1
    55   28   65 1
    56   29   30 1
    57   29   66 1
    58   29   67 1
    59   30   31 1
    60   30   68 1
    61   30   69 1
    62   31   32 1
    63   31   70 1
    64   31   83 1
    65   32   33 1
    66   32   71 1
    67   32   72 1
    68   33   34 1
    69   33   35 1
    70   35   36 am
    71   35   73 1
    72   36   37 2
    73   36   38 1
    74   38   43 ar
    75   38   39 ar
    76   39   40 ar
    77   39   74 1
    78   40   41 ar
    79   40   75 1
    80   41   42 ar
    81   42   43 ar
    82   42   76 1
    83   43   77 1
    84   44   78 1
    85   45   79 1
    86   45   80 1
    87   45   81 1
@<TRIPOS>MOLECULE
CHEMBL536485
   82    86     0     0     0
SMALL
USER_CHARGES

@<TRIPOS>ATOM
      1 C1          0.8170   -1.3394    3.2810 C.3       1 <0>        -0.1597
      2 C2          2.1652   -1.6305    3.9432 C.3       1 <0>        -0.0690
      3 C3          1.9381   -2.0807    5.3892 C.3       1 <0>        -0.1273
      4 C4          1.2868   -0.9377    6.1731 C.3       1 <0>        -0.1478
      5 C5          2.1755    0.3049    6.0854 C.3       1 <0>        -0.0060
      6 N1          2.3327    0.7003    4.6806 N.4       1 <0>        -0.5031
      7 C6          3.0214   -0.3622    3.9382 C.3       1 <0>         0.1181
      8 C7          3.2478    0.0846    2.5168 C.ar      1 <0>        -0.3194
      9 C8          2.4888    1.1154    1.9891 C.ar      1 <0>        -0.0516
     10 C9          2.6854    1.5348    0.6876 C.ar      1 <0>        -0.2290
     11 C10         3.6474    0.9256   -0.1027 C.ar      1 <0>         0.3283
     12 C11         4.4212   -0.1197    0.4250 C.ar      1 <0>        -0.3338
     13 C12         4.2151   -0.5320    1.7483 C.ar      1 <0>         0.2107
     14 F1          4.9575   -1.5334    2.2692 F         1 <0>        -0.1441
     15 C13         5.4462   -0.7749   -0.4043 C.2       1 <0>         0.4762
     16 O1          5.1770   -1.7929   -1.0120 O.2       1 <0>        -0.4427
     17 C14         6.8043   -0.1942   -0.4982 C.ar      1 <0>        -0.1032
     18 C15         7.1495    0.9054    0.2899 C.ar      1 <0>        -0.0651
     19 C16         8.4141    1.4456    0.2026 C.ar      1 <0>        -0.0678
     20 C17         9.3500    0.8935   -0.6734 C.ar      1 <0>        -0.1299
     21 C18         9.0050   -0.2056   -1.4617 C.ar      1 <0>        -0.0979
     22 C19         7.7423   -0.7496   -1.3706 C.ar      1 <0>        -0.0748
     23 C20        10.7084    1.4739   -0.7670 C.2       1 <0>         0.5717
     24 O2         11.0088    2.4310   -0.0810 O.2       1 <0>        -0.5216
     25 N2         11.6122    0.9409   -1.6129 N.am      1 <0>        -0.7296
     26 C21        12.9567    1.5153   -1.7054 C.3       1 <0>         0.1259
     27 H1         13.2637    1.8678   -0.7208 H         1 <0>         0.1120
     28 C22        12.9320    2.7118   -2.6891 C.3       1 <0>        -0.1419
     29 C23        14.1793    3.5307   -2.4897 C.3       1 <0>        -0.1429
     30 C24        15.3436    3.1084   -3.4037 C.3       1 <0>        -0.0104
     31 N3         15.5049    1.6430   -3.5166 N.4       1 <0>        -0.4991
     32 C25        15.3389    0.9832   -2.2443 C.3       1 <0>        -0.0234
     33 C26        13.8863    0.4874   -2.1571 C.3       1 <0>         0.1226
     34 H2         13.5738    0.1408   -3.1422 H         1 <0>         0.1120
     35 N4         13.8300   -0.6411   -1.2247 N.am      1 <0>        -0.7201
     36 C27        14.1722   -1.8766   -1.6405 C.2       1 <0>         0.5728
     37 O3         14.5274   -2.0545   -2.7889 O.2       1 <0>        -0.5212
     38 C28        14.1152   -3.0178   -0.6976 C.ar      1 <0>        -0.1033
     39 C29        13.7038   -2.8362    0.6263 C.ar      1 <0>        -0.1407
     40 C30        13.6651   -3.9282    1.4715 C.ar      1 <0>         0.1041
     41 N5         14.0095   -5.1269    1.0448 N.ar      1 <0>        -0.4573
     42 C31        14.4031   -5.3418   -0.1947 C.ar      1 <0>         0.1054
     43 C32        14.4659   -4.3075   -1.1084 C.ar      1 <0>        -0.1098
     44 O4          3.8398    1.3375   -1.3806 O.3       1 <0>        -0.6603
     45 C33         2.8860   -2.7366    3.1699 C.3       1 <0>        -0.1457
     46 H3          0.9795   -1.0152    2.2531 H         1 <0>         0.0826
     47 H4          0.2076   -2.2431    3.2849 H         1 <0>         0.0758
     48 H5          0.3033   -0.5525    3.8332 H         1 <0>         0.0456
     49 H6          1.2820   -2.9511    5.4011 H         1 <0>         0.0909
     50 H7          2.8942   -2.3372    5.8455 H         1 <0>         0.0792
     51 H8          0.3081   -0.7160    5.7476 H         1 <0>         0.0886
     52 H9          1.1728   -1.2307    7.2167 H         1 <0>         0.1083
     53 H10         1.7148    1.1206    6.6426 H         1 <0>         0.1296
     54 H11         3.1538    0.0821    6.5113 H         1 <0>         0.1275
     55 H12         1.4234    0.8589    4.2731 H         1 <0>         0.4224
     56 H13         3.9816   -0.5708    4.4099 H         1 <0>         0.1282
     57 H14         1.7374    1.5947    2.5992 H         1 <0>         0.0982
     58 H15         2.0879    2.3393    0.2848 H         1 <0>         0.1207
     59 H16         6.4252    1.3329    0.9675 H         1 <0>         0.1390
     60 H17         8.6810    2.2964    0.8119 H         1 <0>         0.1410
     61 H18         9.7292   -0.6324   -2.1397 H         1 <0>         0.1244
     62 H19         7.4768   -1.6028   -1.9772 H         1 <0>         0.1405
     63 H20        11.3725    0.1769   -2.1604 H         1 <0>         0.4064
     64 H21        12.8981    2.3416   -3.7137 H         1 <0>         0.0762
     65 H22        12.0549    3.3284   -2.4923 H         1 <0>         0.1077
     66 H23        13.9446    4.5772   -2.6843 H         1 <0>         0.1168
     67 H24        14.4978    3.4345   -1.4517 H         1 <0>         0.0912
     68 H25        15.1720    3.5182   -4.3991 H         1 <0>         0.1350
     69 H26        16.2676    3.5318   -3.0098 H         1 <0>         0.1344
     70 H27        14.8180    1.2859   -4.1637 H         1 <0>         0.4273
     71 H28        16.0226    0.1370   -2.1756 H         1 <0>         0.1438
     72 H29        15.5385    1.6860   -1.4354 H         1 <0>         0.1439
     73 H30        13.5465   -0.4991   -0.3080 H         1 <0>         0.4160
     74 H31        13.4208   -1.8568    0.9828 H         1 <0>         0.1372
     75 H32        13.3487   -3.7980    2.4959 H         1 <0>         0.1669
     76 H33        14.6765   -6.3406   -0.5012 H         1 <0>         0.1700
     77 H34        14.7848   -4.4916   -2.1237 H         1 <0>         0.1511
     78 H35         3.0488   -2.4141    2.1415 H         1 <0>         0.0753
     79 H36         3.8463   -2.9435    3.6422 H         1 <0>         0.0657
     80 H37         2.2763   -3.6401    3.1752 H         1 <0>         0.0669
     81 H38         2.8745    1.5500    4.6301 H         1 <0>         0.4287
     82 H39        16.4267    1.4406   -3.8736 H         1 <0>         0.4371
@<TRIPOS>BOND
     1    1    2 1
     2    1   46 1
     3    1   47 1
     4    1   48 1
     5    2    7 1
     6    2    3 1
     7    2   45 1
     8    3    4 1
     9    3   49 1
    10    3   50 1
    11    4    5 1
    12    4   51 1
    13    4   52 1
    14    5    6 1
    15    5   53 1
    16    5   54 1
    17    6    7 1
    18    6   55 1
    19    6   81 1
    20    7    8 1
    21    7   56 1
    22    8   13 ar
    23    8    9 ar
    24    9   10 ar
    25    9   57 1
    26   10   11 ar
    27   10   58 1
    28   11   12 ar
    29   11   44 1
    30   12   13 ar
    31   12   15 1
    32   13   14 1
    33   15   16 2
    34   15   17 1
    35   17   22 ar
    36   17   18 ar
    37   18   19 ar
    38   18   59 1
    39   19   20 ar
    40   19   60 1
    41   20   21 ar
    42   20   23 1
    43   21   22 ar
    44   21   61 1
    45   22   62 1
    46   23   24 2
    47   23   25 am
    48   25   26 1
    49   25   63 1
    50   26   27 1
    51   26   33 1
    52   26   28 1
    53   28   29 1
    54   28   64 1
    55   28   65 1
    56   29   30 1
    57   29   66 1
    58   29   67 1
    59   30   31 1
    60   30   68 1
    61   30   69 1
    62   31   32 1
    63   31   70 1
    64   31   82 1
    65   32   33 1
    66   32   71 1
    67   32   72 1
    68   33   34 1
    69   33   35 1
    70   35   36 am
    71   35   73 1
    72   36   37 2
    73   36   38 1
    74   38   43 ar
    75   38   39 ar
    76   39   40 ar
    77   39   74 1
    78   40   41 ar
    79   40   75 1
    80   41   42 ar
    81   42   43 ar
    82   42   76 1
    83   43   77 1
    84   45   78 1
    85   45   79 1
    86   45   80 1
@<TRIPOS>MOLECULE
CHEMBL536485
   83    87     0     0     0
SMALL
USER_CHARGES

@<TRIPOS>ATOM
      1 C1          2.3490   -0.8983    4.6164 C.3       1 <0>        -0.1502
      2 C2          2.5829   -2.1102    3.7123 C.3       1 <0>        -0.0701
      3 C3          2.7833   -3.3601    4.5741 C.3       1 <0>        -0.1277
      4 C4          3.0941   -4.5515    3.6636 C.3       1 <0>        -0.1511
      5 C5          4.3252   -4.2296    2.8138 C.3       1 <0>        -0.0073
      6 N1          4.0611   -3.0411    1.9939 N.4       1 <0>        -0.5053
      7 C6          3.8330   -1.8787    2.8607 C.3       1 <0>         0.0914
      8 C7          3.6404   -0.6492    2.0108 C.ar      1 <0>        -0.1789
      9 C8          3.1746   -0.7744    0.7129 C.ar      1 <0>        -0.0670
     10 C9          2.9939    0.3442   -0.0775 C.ar      1 <0>        -0.1365
     11 C10         3.2779    1.6047    0.4240 C.ar      1 <0>         0.2015
     12 C11         3.7501    1.7400    1.7389 C.ar      1 <0>        -0.1998
     13 C12         3.9240    0.5978    2.5316 C.ar      1 <0>         0.1823
     14 F1          4.3726    0.7158    3.8005 F         1 <0>        -0.1124
     15 C13         4.0552    3.0735    2.2832 C.2       1 <0>         0.4485
     16 O1          3.1823    3.7230    2.8259 O.2       1 <0>        -0.4077
     17 C14         5.4246    3.6234    2.1699 C.ar      1 <0>        -0.1307
     18 C15         6.3979    2.9299    1.4480 C.ar      1 <0>        -0.0709
     19 C16         7.6726    3.4423    1.3422 C.ar      1 <0>        -0.0659
     20 C17         7.9908    4.6545    1.9566 C.ar      1 <0>        -0.1069
     21 C18         7.0181    5.3477    2.6787 C.ar      1 <0>        -0.0936
     22 C19         5.7417    4.8386    2.7799 C.ar      1 <0>        -0.0611
     23 C20         9.3602    5.2048    1.8428 C.2       1 <0>         0.5654
     24 O2         10.2074    4.6011    1.2144 O.2       1 <0>        -0.5136
     25 N2          9.6676    6.3752    2.4360 N.am      1 <0>        -0.7255
     26 C21        11.0230    6.9198    2.3234 C.3       1 <0>         0.1254
     27 H1         11.4252    6.6777    1.3397 H         1 <0>         0.1142
     28 C22        11.9205    6.2795    3.4116 C.3       1 <0>        -0.1399
     29 C23        13.3631    6.5256    3.0585 C.3       1 <0>        -0.1436
     30 C24        13.9359    7.8127    3.6788 C.3       1 <0>        -0.0113
     31 N3         13.0131    8.9657    3.6055 N.4       1 <0>        -0.4994
     32 C25        12.3455    9.0410    2.3286 C.3       1 <0>        -0.0241
     33 C26        10.9709    8.3686    2.4758 C.3       1 <0>         0.1221
     34 H2         10.5690    8.6029    3.4616 H         1 <0>         0.1122
     35 N4         10.0684    8.9168    1.4604 N.am      1 <0>        -0.7223
     36 C27         9.4553   10.0984    1.6710 C.2       1 <0>         0.5728
     37 O3          9.6511   10.7090    2.7032 O.2       1 <0>        -0.5187
     38 C28         8.5426   10.6528    0.6442 C.ar      1 <0>        -0.1050
     39 C29         8.2988    9.9638   -0.5478 C.ar      1 <0>        -0.1427
     40 C30         7.4402   10.5173   -1.4778 C.ar      1 <0>         0.1044
     41 N5          6.8556   11.6771   -1.2532 N.ar      1 <0>        -0.4556
     42 C31         7.0578   12.3591   -0.1435 C.ar      1 <0>         0.1076
     43 C32         7.8966   11.8768    0.8426 C.ar      1 <0>        -0.1093
     44 O4          3.1008    2.7025   -0.3525 O.3       1 <0>        -0.4830
     45 C33         1.3716   -2.3073    2.7986 C.3       1 <0>        -0.1673
     46 H3          2.2103   -0.0083    4.0025 H         1 <0>         0.0635
     47 H4          1.4584   -1.0638    5.2227 H         1 <0>         0.0821
     48 H5          3.2115   -0.7593    5.2681 H         1 <0>         0.0724
     49 H6          3.6143   -3.1997    5.2610 H         1 <0>         0.0856
     50 H7          1.8742   -3.5617    5.1407 H         1 <0>         0.1004
     51 H8          3.2928   -5.4332    4.2729 H         1 <0>         0.1178
     52 H9          2.2419   -4.7434    3.0117 H         1 <0>         0.0922
     53 H10         5.1768   -4.0381    3.4667 H         1 <0>         0.1337
     54 H11         4.5494   -5.0759    2.1645 H         1 <0>         0.1398
     55 H12         4.8542   -2.8631    1.3961 H         1 <0>         0.4316
     56 H13         4.6950   -1.7373    3.5125 H         1 <0>         0.1509
     57 H14         2.9513   -1.7535    0.3155 H         1 <0>         0.1380
     58 H15         2.6308    0.2361   -1.0889 H         1 <0>         0.1602
     59 H16         6.1518    1.9918    0.9728 H         1 <0>         0.1346
     60 H17         8.4256    2.9058    0.7841 H         1 <0>         0.1477
     61 H18         7.2646    6.2855    3.1543 H         1 <0>         0.1333
     62 H19         4.9879    5.3772    3.3349 H         1 <0>         0.1463
     63 H20         8.9915    6.8571    2.9376 H         1 <0>         0.4066
     64 H21        11.6993    6.7301    4.3791 H         1 <0>         0.0771
     65 H22        11.7331    5.2066    3.4548 H         1 <0>         0.1056
     66 H23        13.9561    5.6784    3.4027 H         1 <0>         0.1175
     67 H24        13.4506    6.5919    1.9741 H         1 <0>         0.0919
     68 H25        14.1715    7.6205    4.7256 H         1 <0>         0.1360
     69 H26        14.8582    8.0703    3.1582 H         1 <0>         0.1362
     70 H27        12.3201    8.8785    4.3336 H         1 <0>         0.4266
     71 H28        12.2172   10.0844    2.0404 H         1 <0>         0.1454
     72 H29        12.9333    8.5187    1.5737 H         1 <0>         0.1446
     73 H30         9.9120    8.4294    0.6364 H         1 <0>         0.4155
     74 H31         8.7749    9.0134   -0.7387 H         1 <0>         0.1358
     75 H32         7.2455    9.9927   -2.4015 H         1 <0>         0.1670
     76 H33         6.5580   13.3059   -0.0015 H         1 <0>         0.1714
     77 H34         8.0540   12.4387    1.7514 H         1 <0>         0.1518
     78 H35         2.1972    3.0470   -0.3464 H         1 <0>         0.4164
     79 H36         1.2312   -1.4179    2.1843 H         1 <0>         0.0745
     80 H37         1.5388   -3.1708    2.1548 H         1 <0>         0.0542
     81 H38         0.4818   -2.4737    3.4057 H         1 <0>         0.0894
     82 H39         3.2431   -3.2010    1.4253 H         1 <0>         0.4240
     83 H40        13.5370    9.8154    3.7527 H         1 <0>         0.4392
@<TRIPOS>BOND
     1    1    2 1
     2    1   46 1
     3    1   47 1
     4    1   48 1
     5    2    7 1
     6    2    3 1
     7    2   45 1
     8    3    4 1
     9    3   49 1
    10    3   50 1
    11    4    5 1
    12    4   51 1
    13    4   52 1
    14    5    6 1
    15    5   53 1
    16    5   54 1
    17    6    7 1
    18    6   55 1
    19    6   82 1
    20    7    8 1
    21    7   56 1
    22    8   13 ar
    23    8    9 ar
    24    9   10 ar
    25    9   57 1
    26   10   11 ar
    27   10   58 1
    28   11   12 ar
    29   11   44 1
    30   12   13 ar
    31   12   15 1
    32   13   14 1
    33   15   16 2
    34   15   17 1
    35   17   22 ar
    36   17   18 ar
    37   18   19 ar
    38   18   59 1
    39   19   20 ar
    40   19   60 1
    41   20   21 ar
    42   20   23 1
    43   21   22 ar
    44   21   61 1
    45   22   62 1
    46   23   24 2
    47   23   25 am
    48   25   26 1
    49   25   63 1
    50   26   27 1
    51   26   33 1
    52   26   28 1
    53   28   29 1
    54   28   64 1
    55   28   65 1
    56   29   30 1
    57   29   66 1
    58   29   67 1
    59   30   31 1
    60   30   68 1
    61   30   69 1
    62   31   32 1
    63   31   70 1
    64   31   83 1
    65   32   33 1
    66   32   71 1
    67   32   72 1
    68   33   34 1
    69   33   35 1
    70   35   36 am
    71   35   73 1
    72   36   37 2
    73   36   38 1
    74   38   43 ar
    75   38   39 ar
    76   39   40 ar
    77   39   74 1
    78   40   41 ar
    79   40   75 1
    80   41   42 ar
    81   42   43 ar
    82   42   76 1
    83   43   77 1
    84   44   78 1
    85   45   79 1
    86   45   80 1
    87   45   81 1
@<TRIPOS>MOLECULE
CHEMBL536485
   82    86     0     0     0
SMALL
USER_CHARGES

@<TRIPOS>ATOM
      1 C1         -0.0758    4.6191    0.1123 C.3       1 <0>        -0.1440
      2 C2         -0.6501    5.7597    0.9550 C.3       1 <0>        -0.0684
      3 C3         -1.4204    6.7260    0.0506 C.3       1 <0>        -0.1276
      4 C4         -1.9241    7.9037    0.8901 C.3       1 <0>        -0.1478
      5 C5         -0.7353    8.5771    1.5791 C.3       1 <0>        -0.0060
      6 N1         -0.0566    7.6091    2.4490 N.4       1 <0>        -0.5030
      7 C6          0.4914    6.5126    1.6417 C.3       1 <0>         0.1177
      8 C7          1.2527    5.5653    2.5328 C.ar      1 <0>        -0.3224
      9 C8          0.9343    5.4778    3.8775 C.ar      1 <0>        -0.0495
     10 C9          1.6243    4.6140    4.7060 C.ar      1 <0>        -0.2305
     11 C10         2.6436    3.8252    4.1962 C.ar      1 <0>         0.3284
     12 C11         2.9721    3.9078    2.8341 C.ar      1 <0>        -0.3319
     13 C12         2.2609    4.7842    2.0037 C.ar      1 <0>         0.2107
     14 F1          2.5642    4.8685    0.6899 F         1 <0>        -0.1449
     15 C13         4.0527    3.0751    2.2805 C.2       1 <0>         0.4718
     16 O1          3.8194    1.9382    1.9183 O.2       1 <0>        -0.4357
     17 C14         5.4230    3.6221    2.1648 C.ar      1 <0>        -0.1053
     18 C15         6.4210    2.8774    1.5332 C.ar      1 <0>        -0.0737
     19 C16         7.6966    3.3870    1.4253 C.ar      1 <0>        -0.0654
     20 C17         7.9912    4.6476    1.9472 C.ar      1 <0>        -0.1299
     21 C18         6.9938    5.3920    2.5791 C.ar      1 <0>        -0.1001
     22 C19         5.7166    4.8852    2.6822 C.ar      1 <0>        -0.0679
     23 C20         9.3616    5.1948    1.8311 C.2       1 <0>         0.5707
     24 O2         10.2302    4.5466    1.2813 O.2       1 <0>        -0.5192
     25 N2          9.6461    6.4120    2.3351 N.am      1 <0>        -0.7298
     26 C21        11.0024    6.9536    2.2201 C.3       1 <0>         0.1252
     27 H1         11.4363    6.6338    1.2728 H         1 <0>         0.1124
     28 C22        11.8674    6.4105    3.3849 C.3       1 <0>        -0.1416
     29 C23        13.3195    6.6355    3.0578 C.3       1 <0>        -0.1435
     30 C24        13.8681    7.9726    3.5874 C.3       1 <0>        -0.0104
     31 N3         12.9441    9.1101    3.3904 N.4       1 <0>        -0.4990
     32 C25        12.3168    9.0760    2.0916 C.3       1 <0>        -0.0237
     33 C26        10.9406    8.4097    2.2509 C.3       1 <0>         0.1234
     34 H2         10.5070    8.7220    3.2009 H         1 <0>         0.1118
     35 N4         10.0686    8.8670    1.1661 N.am      1 <0>        -0.7195
     36 C27         9.4451   10.0582    1.2594 C.2       1 <0>         0.5723
     37 O3          9.6062   10.7529    2.2432 O.2       1 <0>        -0.5219
     38 C28         8.5634   10.5207    0.1624 C.ar      1 <0>        -0.1023
     39 C29         8.3597    9.7344   -0.9757 C.ar      1 <0>        -0.1395
     40 C30         7.5288   10.2042   -1.9745 C.ar      1 <0>         0.1045
     41 N5          6.9335   11.3751   -1.8646 N.ar      1 <0>        -0.4580
     42 C31         7.0982   12.1473   -0.8092 C.ar      1 <0>         0.1034
     43 C32         7.9072   11.7530    0.2390 C.ar      1 <0>        -0.1108
     44 O4          3.3210    2.9777    5.0101 O.3       1 <0>        -0.6576
     45 C33        -1.5943    5.1871    2.0141 C.3       1 <0>        -0.1608
     46 H3          0.4756    3.9338    0.7560 H         1 <0>         0.0735
     47 H4         -0.8895    4.0832   -0.3765 H         1 <0>         0.0688
     48 H5          0.5955    5.0277   -0.6429 H         1 <0>         0.0645
     49 H6         -0.7607    7.0943   -0.7350 H         1 <0>         0.0791
     50 H7         -2.2688    6.2084   -0.3971 H         1 <0>         0.0913
     51 H8         -2.4255    8.6236    0.2433 H         1 <0>         0.1084
     52 H9         -2.6236    7.5409    1.6432 H         1 <0>         0.0888
     53 H10        -0.0366    8.9397    0.8252 H         1 <0>         0.1267
     54 H11        -1.0904    9.4162    2.1775 H         1 <0>         0.1291
     55 H12         0.6934    8.0697    2.9423 H         1 <0>         0.4274
     56 H13         1.1640    6.9191    0.8864 H         1 <0>         0.1275
     57 H14         0.1412    6.0895    4.2816 H         1 <0>         0.0985
     58 H15         1.3690    4.5535    5.7536 H         1 <0>         0.1203
     59 H16         6.1933    1.9019    1.1297 H         1 <0>         0.1439
     60 H17         8.4687    2.8109    0.9370 H         1 <0>         0.1428
     61 H18         7.2220    6.3672    2.9832 H         1 <0>         0.1229
     62 H19         4.9438    5.4631    3.1671 H         1 <0>         0.1373
     63 H20         8.9528    6.9294    2.7739 H         1 <0>         0.4055
     64 H21        11.6143    6.9379    4.3046 H         1 <0>         0.0760
     65 H22        11.6824    5.3437    3.5106 H         1 <0>         0.1080
     66 H23        13.9044    5.8230    3.4890 H         1 <0>         0.1173
     67 H24        13.4410    6.6127    1.9748 H         1 <0>         0.0915
     68 H25        14.0712    7.8687    4.6532 H         1 <0>         0.1352
     69 H26        14.8054    8.1921    3.0762 H         1 <0>         0.1346
     70 H27        12.2288    9.0790    4.1014 H         1 <0>         0.4270
     71 H28        12.1940   10.0913    1.7144 H         1 <0>         0.1435
     72 H29        12.9299    8.4969    1.4010 H         1 <0>         0.1443
     73 H30         9.9400    8.3125    0.3807 H         1 <0>         0.4164
     74 H31         8.8448    8.7744   -1.0727 H         1 <0>         0.1381
     75 H32         7.3652    9.6042   -2.8574 H         1 <0>         0.1675
     76 H33         6.5909   13.0996   -0.7615 H         1 <0>         0.1690
     77 H34         8.0340   12.3887    1.1028 H         1 <0>         0.1506
     78 H35        -1.0445    4.5011    2.6583 H         1 <0>         0.0834
     79 H36        -2.0031    6.0002    2.6141 H         1 <0>         0.0453
     80 H37        -2.4081    4.6523    1.5243 H         1 <0>         0.0764
     81 H38        -0.7164    7.2372    3.1158 H         1 <0>         0.4220
     82 H39        13.4601    9.9722    3.4833 H         1 <0>         0.4370
@<TRIPOS>BOND
     1    1    2 1
     2    1   46 1
     3    1   47 1
     4    1   48 1
     5    2    7 1
     6    2    3 1
     7    2   45 1
     8    3    4 1
     9    3   49 1
    10    3   50 1
    11    4    5 1
    12    4   51 1
    13    4   52 1
    14    5    6 1
    15    5   53 1
    16    5   54 1
    17    6    7 1
    18    6   55 1
    19    6   81 1
    20    7    8 1
    21    7   56 1
    22    8   13 ar
    23    8    9 ar
    24    9   10 ar
    25    9   57 1
    26   10   11 ar
    27   10   58 1
    28   11   12 ar
    29   11   44 1
    30   12   13 ar
    31   12   15 1
    32   13   14 1
    33   15   16 2
    34   15   17 1
    35   17   22 ar
    36   17   18 ar
    37   18   19 ar
    38   18   59 1
    39   19   20 ar
    40   19   60 1
    41   20   21 ar
    42   20   23 1
    43   21   22 ar
    44   21   61 1
    45   22   62 1
    46   23   24 2
    47   23   25 am
    48   25   26 1
    49   25   63 1
    50   26   27 1
    51   26   33 1
    52   26   28 1
    53   28   29 1
    54   28   64 1
    55   28   65 1
    56   29   30 1
    57   29   66 1
    58   29   67 1
    59   30   31 1
    60   30   68 1
    61   30   69 1
    62   31   32 1
    63   31   70 1
    64   31   82 1
    65   32   33 1
    66   32   71 1
    67   32   72 1
    68   33   34 1
    69   33   35 1
    70   35   36 am
    71   35   73 1
    72   36   37 2
    73   36   38 1
    74   38   43 ar
    75   38   39 ar
    76   39   40 ar
    77   39   74 1
    78   40   41 ar
    79   40   75 1
    80   41   42 ar
    81   42   43 ar
    82   42   76 1
    83   43   77 1
    84   45   78 1
    85   45   79 1
    86   45   80 1
@<TRIPOS>MOLECULE
CHEMBL488428
   72    78     0     0     0
SMALL
USER_CHARGES

@<TRIPOS>ATOM
      1 C1         -0.0167    1.3792    0.0096 C.ar      1 <0>        -0.1099
      2 C2          1.1686    2.0925    0.0021 C.ar      1 <0>        -0.1111
      3 C3          2.3774    1.4271   -0.0130 C.ar      1 <0>        -0.1030
      4 C4          2.4026    0.0331   -0.0207 C.ar      1 <0>        -0.0481
      5 C5          1.2048   -0.6804   -0.0131 C.ar      1 <0>        -0.1004
      6 C6          0.0021   -0.0041    0.0020 C.ar      1 <0>        -0.1221
      7 C7          3.6977   -0.6874   -0.0375 C.ar      1 <0>        -0.1091
      8 C8          4.6806   -0.3453   -0.9625 C.ar      1 <0>         0.0162
      9 C9          5.8811   -1.0557   -0.9345 C.ar      1 <0>        -0.1980
     10 C10         6.0604   -2.0873    0.0193 C.ar      1 <0>         0.2202
     11 C11         7.3333   -2.8108    0.0176 C.2       1 <0>        -0.2026
     12 C12         8.2816   -2.4813   -0.8749 C.2       1 <0>         0.1436
     13 N1          8.1107   -1.4880   -1.7936 N.am      1 <0>        -0.6308
     14 H1          8.8309   -1.2936   -2.4136 H         1 <0>         0.4232
     15 C13         6.9738   -0.7679   -1.8686 C.2       1 <0>         0.5517
     16 O1          6.8556    0.1116   -2.7027 O.2       1 <0>        -0.5117
     17 N2          5.0960   -2.3805    0.8833 N.ar      1 <0>        -0.4694
     18 C14         3.9485   -1.7214    0.8861 C.ar      1 <0>         0.2069
     19 C15         2.9057   -2.0818    1.8744 C.ar      1 <0>        -0.0135
     20 C16         2.0776   -1.0955    2.4098 C.ar      1 <0>        -0.0800
     21 C17         1.1080   -1.4374    3.3301 C.ar      1 <0>        -0.1004
     22 C18         0.9565   -2.7555    3.7219 C.ar      1 <0>        -0.1490
     23 C19         1.7748   -3.7384    3.1945 C.ar      1 <0>        -0.0974
     24 C20         2.7442   -3.4097    2.2691 C.ar      1 <0>        -0.0738
     25 C21        -0.1041   -3.1222    4.7279 C.3       1 <0>         0.0430
     26 N3         -1.3543   -3.4428    4.0264 N.4       1 <0>        -0.3833
     27 C22        -1.8526   -2.2425    3.3442 C.3       1 <0>        -0.0118
     28 C23        -3.1108   -2.5903    2.5458 C.3       1 <0>        -0.1372
     29 C24        -4.1847   -3.1195    3.5007 C.3       1 <0>         0.0003
     30 C25        -3.6277   -4.3266    4.2610 C.3       1 <0>        -0.1394
     31 C26        -2.3504   -3.9145    4.9959 C.3       1 <0>        -0.0037
     32 C27        -5.3989   -3.5373    2.7118 C.2       1 <0>         0.2262
     33 N4         -6.6209   -3.0299    2.8517 N.2       1 <0>        -0.5257
     34 H2         -7.0728   -5.1184    0.6105 H         1 <0>         0.4442
     35 C28        -7.4462   -3.6177    2.0086 C.2       1 <0>         0.3670
     36 N5         -6.7371   -4.5300    1.3048 N.pl3     1 <0>        -0.4775
     37 N6         -5.4170   -4.4519    1.7776 N.2       1 <0>        -0.3040
     38 C29        -8.8894   -3.3314    1.8591 C.2       1 <0>        -0.1535
     39 C30        -9.5058   -2.3427    2.6601 C.2       1 <0>         0.0142
     40 C31       -10.8355   -2.0988    2.5026 C.2       1 <0>        -0.2261
     41 C32       -11.5661   -2.8319    1.5504 C.2       1 <0>         0.5142
     42 O2        -12.7584   -2.6170    1.4049 O.2       1 <0>        -0.5241
     43 N7        -10.9594   -3.7684    0.7985 N.am      1 <0>        -0.5943
     44 H3        -11.4766   -4.2659    0.1459 H         1 <0>         0.4258
     45 C33        -9.6411   -4.0219    0.9348 C.2       1 <0>         0.1815
     46 H4         -0.9603    1.9042    0.0260 H         1 <0>         0.1262
     47 H5          1.1477    3.1723    0.0078 H         1 <0>         0.1302
     48 H6          3.3021    1.9851   -0.0192 H         1 <0>         0.1281
     49 H7          1.2182   -1.7603   -0.0191 H         1 <0>         0.1198
     50 H8         -0.9264   -0.5557    0.0079 H         1 <0>         0.1221
     51 H9          4.5186    0.4455   -1.6799 H         1 <0>         0.1561
     52 H10         7.5087   -3.6039    0.7294 H         1 <0>         0.1603
     53 H11         9.2154   -3.0236   -0.8643 H         1 <0>         0.1741
     54 H12         2.1952   -0.0661    2.1049 H         1 <0>         0.1433
     55 H13         0.4664   -0.6745    3.7456 H         1 <0>         0.1353
     56 H14         1.6520   -4.7656    3.5045 H         1 <0>         0.1356
     57 H15         3.3793   -4.1785    1.8544 H         1 <0>         0.1423
     58 H16         0.2234   -3.9892    5.3015 H         1 <0>         0.1390
     59 H17        -0.2710   -2.2823    5.4023 H         1 <0>         0.1377
     60 H18        -2.0917   -1.4779    4.0834 H         1 <0>         0.1332
     61 H19        -1.0861   -1.8652    2.6674 H         1 <0>         0.1365
     62 H20        -3.4802   -1.6974    2.0415 H         1 <0>         0.1152
     63 H21        -2.8728   -3.3547    1.8061 H         1 <0>         0.0955
     64 H22        -4.4599   -2.3380    4.2089 H         1 <0>         0.1175
     65 H23        -4.3667   -4.6747    4.9827 H         1 <0>         0.1163
     66 H24        -3.4004   -5.1270    3.5569 H         1 <0>         0.0960
     67 H25        -1.9514   -4.7715    5.5384 H         1 <0>         0.1358
     68 H26        -2.5789   -3.1142    5.6998 H         1 <0>         0.1339
     69 H27        -8.9298   -1.7892    3.3869 H         1 <0>         0.1521
     70 H28       -11.3259   -1.3481    3.1046 H         1 <0>         0.1621
     71 H29        -9.1732   -4.7748    0.3178 H         1 <0>         0.1654
     72 H30        -1.1805   -4.1666    3.3452 H         1 <0>         0.4232
@<TRIPOS>BOND
     1    1    6 ar
     2    1    2 ar
     3    1   46 1
     4    2    3 ar
     5    2   47 1
     6    3    4 ar
     7    3   48 1
     8    4    5 ar
     9    4    7 1
    10    5    6 ar
    11    5   49 1
    12    6   50 1
    13    7   18 ar
    14    7    8 ar
    15    8    9 ar
    16    8   51 1
    17    9   15 1
    18    9   10 ar
    19   10   11 1
    20   10   17 ar
    21   11   12 2
    22   11   52 1
    23   12   13 1
    24   12   53 1
    25   13   14 1
    26   13   15 am
    27   15   16 2
    28   17   18 ar
    29   18   19 1
    30   19   24 ar
    31   19   20 ar
    32   20   21 ar
    33   20   54 1
    34   21   22 ar
    35   21   55 1
    36   22   23 ar
    37   22   25 1
    38   23   24 ar
    39   23   56 1
    40   24   57 1
    41   25   26 1
    42   25   58 1
    43   25   59 1
    44   26   31 1
    45   26   27 1
    46   26   72 1
    47   27   28 1
    48   27   60 1
    49   27   61 1
    50   28   29 1
    51   28   62 1
    52   28   63 1
    53   29   30 1
    54   29   64 1
    55   29   32 1
    56   30   31 1
    57   30   65 1
    58   30   66 1
    59   31   67 1
    60   31   68 1
    61   32   33 1
    62   32   37 2
    63   33   35 2
    64   34   36 1
    65   35   38 1
    66   35   36 1
    67   36   37 1
    68   38   45 2
    69   38   39 1
    70   39   40 2
    71   39   69 1
    72   40   41 1
    73   40   70 1
    74   41   42 2
    75   41   43 am
    76   43   44 1
    77   43   45 1
    78   45   71 1
@<TRIPOS>MOLECULE
CHEMBL488428
   72    78     0     0     0
SMALL
USER_CHARGES

@<TRIPOS>ATOM
      1 C1         -0.0167    1.3792    0.0096 C.ar      1 <0>        -0.1094
      2 C2          1.1686    2.0925    0.0021 C.ar      1 <0>        -0.1106
      3 C3          2.3774    1.4271   -0.0130 C.ar      1 <0>        -0.1027
      4 C4          2.4026    0.0331   -0.0207 C.ar      1 <0>        -0.0484
      5 C5          1.2048   -0.6804   -0.0131 C.ar      1 <0>        -0.1012
      6 C6          0.0021   -0.0041    0.0020 C.ar      1 <0>        -0.1225
      7 C7          3.6977   -0.6874   -0.0375 C.ar      1 <0>        -0.1091
      8 C8          4.6806   -0.3453   -0.9625 C.ar      1 <0>         0.0164
      9 C9          5.8811   -1.0557   -0.9345 C.ar      1 <0>        -0.1973
     10 C10         6.0604   -2.0873    0.0193 C.ar      1 <0>         0.2204
     11 C11         7.3333   -2.8108    0.0176 C.2       1 <0>        -0.2033
     12 C12         8.2816   -2.4813   -0.8749 C.2       1 <0>         0.1444
     13 N1          8.1107   -1.4880   -1.7936 N.am      1 <0>        -0.6307
     14 H1          8.8309   -1.2936   -2.4136 H         1 <0>         0.4234
     15 C13         6.9738   -0.7679   -1.8686 C.2       1 <0>         0.5515
     16 O1          6.8556    0.1116   -2.7027 O.2       1 <0>        -0.5111
     17 N2          5.0960   -2.3805    0.8833 N.ar      1 <0>        -0.4694
     18 C14         3.9485   -1.7214    0.8861 C.ar      1 <0>         0.2054
     19 C15         2.9057   -2.0818    1.8744 C.ar      1 <0>        -0.0112
     20 C16         2.0776   -1.0955    2.4098 C.ar      1 <0>        -0.0796
     21 C17         1.1080   -1.4374    3.3301 C.ar      1 <0>        -0.1002
     22 C18         0.9565   -2.7555    3.7219 C.ar      1 <0>        -0.1515
     23 C19         1.7748   -3.7384    3.1945 C.ar      1 <0>        -0.0975
     24 C20         2.7442   -3.4097    2.2691 C.ar      1 <0>        -0.0742
     25 C21        -0.1041   -3.1222    4.7279 C.3       1 <0>         0.0434
     26 N3         -1.3543   -3.4428    4.0264 N.4       1 <0>        -0.3845
     27 C22        -1.8526   -2.2425    3.3442 C.3       1 <0>        -0.0128
     28 C23        -3.1108   -2.5903    2.5458 C.3       1 <0>        -0.1382
     29 C24        -4.1847   -3.1195    3.5007 C.3       1 <0>        -0.0175
     30 C25        -3.6277   -4.3266    4.2610 C.3       1 <0>        -0.1489
     31 C26        -2.3504   -3.9145    4.9959 C.3       1 <0>        -0.0025
     32 C27        -5.3989   -3.5373    2.7118 C.2       1 <0>         0.2808
     33 N4         -6.4539   -2.8005    2.4830 N.2       1 <0>        -0.5152
     34 H2         -4.9612   -5.4772    2.1154 H         1 <0>         0.4399
     35 C28        -7.3376   -3.4898    1.7489 C.2       1 <0>         0.3038
     36 N5         -6.8424   -4.6833    1.5043 N.2       1 <0>        -0.3014
     37 N6         -5.5800   -4.7302    2.1176 N.pl3     1 <0>        -0.4764
     38 C29        -8.6569   -2.9896    1.2885 C.2       1 <0>        -0.1379
     39 C30        -9.0721   -1.6806    1.6152 C.2       1 <0>         0.0104
     40 C31       -10.2866   -1.2424    1.1823 C.2       1 <0>        -0.2330
     41 C32       -11.0996   -2.1006    0.4209 C.2       1 <0>         0.5148
     42 O2        -12.1893   -1.7158    0.0286 O.2       1 <0>        -0.5324
     43 N7        -10.6809   -3.3446    0.1226 N.am      1 <0>        -0.6016
     44 H3        -11.2502   -3.9278   -0.4033 H         1 <0>         0.4239
     45 C33        -9.4716   -3.7912    0.5427 C.2       1 <0>         0.1894
     46 H4         -0.9603    1.9042    0.0260 H         1 <0>         0.1268
     47 H5          1.1477    3.1723    0.0078 H         1 <0>         0.1306
     48 H6          3.3021    1.9851   -0.0192 H         1 <0>         0.1283
     49 H7          1.2182   -1.7603   -0.0191 H         1 <0>         0.1192
     50 H8         -0.9264   -0.5557    0.0079 H         1 <0>         0.1217
     51 H9          4.5186    0.4455   -1.6799 H         1 <0>         0.1564
     52 H10         7.5087   -3.6039    0.7294 H         1 <0>         0.1604
     53 H11         9.2154   -3.0236   -0.8643 H         1 <0>         0.1743
     54 H12         2.1952   -0.0661    2.1049 H         1 <0>         0.1439
     55 H13         0.4664   -0.6745    3.7456 H         1 <0>         0.1356
     56 H14         1.6520   -4.7656    3.5045 H         1 <0>         0.1353
     57 H15         3.3793   -4.1785    1.8544 H         1 <0>         0.1425
     58 H16         0.2234   -3.9892    5.3015 H         1 <0>         0.1399
     59 H17        -0.2710   -2.2823    5.4023 H         1 <0>         0.1388
     60 H18        -2.0917   -1.4779    4.0834 H         1 <0>         0.1366
     61 H19        -1.0861   -1.8652    2.6674 H         1 <0>         0.1396
     62 H20        -3.4802   -1.6974    2.0415 H         1 <0>         0.1244
     63 H21        -2.8728   -3.3547    1.8061 H         1 <0>         0.0900
     64 H22        -4.4599   -2.3380    4.2089 H         1 <0>         0.1303
     65 H23        -4.3667   -4.6747    4.9827 H         1 <0>         0.1234
     66 H24        -3.4004   -5.1270    3.5569 H         1 <0>         0.0882
     67 H25        -1.9514   -4.7715    5.5384 H         1 <0>         0.1390
     68 H26        -2.5789   -3.1142    5.6998 H         1 <0>         0.1375
     69 H27        -8.4349   -1.0350    2.2013 H         1 <0>         0.1469
     70 H28       -10.6226   -0.2444    1.4220 H         1 <0>         0.1586
     71 H29        -9.1521   -4.7911    0.2885 H         1 <0>         0.1742
     72 H30        -1.1805   -4.1666    3.3452 H         1 <0>         0.4221
@<TRIPOS>BOND
     1    1    6 ar
     2    1    2 ar
     3    1   46 1
     4    2    3 ar
     5    2   47 1
     6    3    4 ar
     7    3   48 1
     8    4    5 ar
     9    4    7 1
    10    5    6 ar
    11    5   49 1
    12    6   50 1
    13    7   18 ar
    14    7    8 ar
    15    8    9 ar
    16    8   51 1
    17    9   15 1
    18    9   10 ar
    19   10   11 1
    20   10   17 ar
    21   11   12 2
    22   11   52 1
    23   12   13 1
    24   12   53 1
    25   13   14 1
    26   13   15 am
    27   15   16 2
    28   17   18 ar
    29   18   19 1
    30   19   24 ar
    31   19   20 ar
    32   20   21 ar
    33   20   54 1
    34   21   22 ar
    35   21   55 1
    36   22   23 ar
    37   22   25 1
    38   23   24 ar
    39   23   56 1
    40   24   57 1
    41   25   26 1
    42   25   58 1
    43   25   59 1
    44   26   31 1
    45   26   27 1
    46   26   72 1
    47   27   28 1
    48   27   60 1
    49   27   61 1
    50   28   29 1
    51   28   62 1
    52   28   63 1
    53   29   30 1
    54   29   64 1
    55   29   32 1
    56   30   31 1
    57   30   65 1
    58   30   66 1
    59   31   67 1
    60   31   68 1
    61   32   33 2
    62   32   37 1
    63   33   35 1
    64   34   37 1
    65   35   38 1
    66   35   36 2
    67   36   37 1
    68   38   45 2
    69   38   39 1
    70   39   40 2
    71   39   69 1
    72   40   41 1
    73   40   70 1
    74   41   42 2
    75   41   43 am
    76   43   44 1
    77   43   45 1
    78   45   71 1
@<TRIPOS>MOLECULE
CHEMBL447114
   70    76     0     0     0
SMALL
USER_CHARGES

@<TRIPOS>ATOM
      1 C1         -0.0167    1.3792    0.0096 C.ar      1 <0>        -0.1098
      2 C2          1.1686    2.0925    0.0021 C.ar      1 <0>        -0.1113
      3 C3          2.3774    1.4271   -0.0130 C.ar      1 <0>        -0.1031
      4 C4          2.4026    0.0331   -0.0207 C.ar      1 <0>        -0.0483
      5 C5          1.2048   -0.6804   -0.0131 C.ar      1 <0>        -0.1002
      6 C6          0.0021   -0.0041    0.0020 C.ar      1 <0>        -0.1221
      7 C7          3.6977   -0.6874   -0.0375 C.ar      1 <0>        -0.1088
      8 C8          4.6806   -0.3453   -0.9625 C.ar      1 <0>         0.0161
      9 C9          5.8811   -1.0557   -0.9345 C.ar      1 <0>        -0.1981
     10 C10         6.0604   -2.0873    0.0193 C.ar      1 <0>         0.2200
     11 C11         7.3333   -2.8108    0.0176 C.2       1 <0>        -0.2023
     12 C12         8.2816   -2.4813   -0.8749 C.2       1 <0>         0.1432
     13 N1          8.1107   -1.4880   -1.7936 N.am      1 <0>        -0.6309
     14 H1          8.8309   -1.2936   -2.4136 H         1 <0>         0.4231
     15 C13         6.9738   -0.7679   -1.8686 C.2       1 <0>         0.5517
     16 O1          6.8556    0.1116   -2.7027 O.2       1 <0>        -0.5119
     17 N2          5.0960   -2.3805    0.8833 N.ar      1 <0>        -0.4694
     18 C14         3.9485   -1.7214    0.8861 C.ar      1 <0>         0.2071
     19 C15         2.9057   -2.0818    1.8744 C.ar      1 <0>        -0.0138
     20 C16         2.0776   -1.0955    2.4098 C.ar      1 <0>        -0.0801
     21 C17         1.1080   -1.4374    3.3301 C.ar      1 <0>        -0.1004
     22 C18         0.9565   -2.7555    3.7219 C.ar      1 <0>        -0.1487
     23 C19         1.7748   -3.7384    3.1945 C.ar      1 <0>        -0.0974
     24 C20         2.7442   -3.4097    2.2691 C.ar      1 <0>        -0.0738
     25 C21        -0.1041   -3.1222    4.7279 C.3       1 <0>         0.0430
     26 N3         -1.3543   -3.4428    4.0264 N.4       1 <0>        -0.3834
     27 C22        -1.8526   -2.2425    3.3442 C.3       1 <0>        -0.0114
     28 C23        -3.1108   -2.5903    2.5458 C.3       1 <0>        -0.1381
     29 C24        -4.1847   -3.1195    3.5007 C.3       1 <0>         0.0016
     30 C25        -3.6277   -4.3266    4.2610 C.3       1 <0>        -0.1402
     31 C26        -2.3504   -3.9145    4.9959 C.3       1 <0>        -0.0033
     32 C27        -5.3989   -3.5373    2.7118 C.2       1 <0>         0.2163
     33 N4         -6.6190   -3.0308    2.8514 N.2       1 <0>        -0.4853
     34 H2         -7.0749   -5.1182    0.6110 H         1 <0>         0.4552
     35 C28        -7.4447   -3.6175    2.0097 C.2       1 <0>         0.3550
     36 N5         -6.7379   -4.5303    1.3051 N.pl3     1 <0>        -0.4414
     37 N6         -5.4172   -4.4530    1.7765 N.2       1 <0>        -0.2905
     38 C29        -8.8896   -3.3298    1.8617 C.ar      1 <0>         0.3667
     39 N7         -9.4458   -2.3978    2.6245 N.ar      1 <0>        -0.4687
     40 C30       -10.7325   -2.1164    2.5172 C.ar      1 <0>         0.1563
     41 C31       -11.5020   -2.8088    1.5936 C.ar      1 <0>        -0.2014
     42 C32       -10.8886   -3.7770    0.8119 C.ar      1 <0>         0.1583
     43 N8         -9.5962   -4.0062    0.9657 N.ar      1 <0>        -0.5088
     44 H3         -0.9603    1.9042    0.0260 H         1 <0>         0.1261
     45 H4          1.1477    3.1723    0.0078 H         1 <0>         0.1300
     46 H5          3.3021    1.9851   -0.0192 H         1 <0>         0.1280
     47 H6          1.2182   -1.7603   -0.0191 H         1 <0>         0.1200
     48 H7         -0.9264   -0.5557    0.0079 H         1 <0>         0.1223
     49 H8          4.5186    0.4455   -1.6799 H         1 <0>         0.1561
     50 H9          7.5087   -3.6039    0.7294 H         1 <0>         0.1603
     51 H10         9.2154   -3.0236   -0.8643 H         1 <0>         0.1740
     52 H11         2.1952   -0.0661    2.1049 H         1 <0>         0.1433
     53 H12         0.4664   -0.6745    3.7456 H         1 <0>         0.1353
     54 H13         1.6520   -4.7656    3.5045 H         1 <0>         0.1357
     55 H14         3.3793   -4.1785    1.8544 H         1 <0>         0.1422
     56 H15         0.2234   -3.9892    5.3015 H         1 <0>         0.1390
     57 H16        -0.2710   -2.2823    5.4023 H         1 <0>         0.1376
     58 H17        -2.0917   -1.4779    4.0834 H         1 <0>         0.1336
     59 H18        -1.0861   -1.8652    2.6674 H         1 <0>         0.1367
     60 H19        -3.4802   -1.6974    2.0415 H         1 <0>         0.1157
     61 H20        -2.8728   -3.3547    1.8061 H         1 <0>         0.0962
     62 H21        -4.4599   -2.3380    4.2089 H         1 <0>         0.1192
     63 H22        -4.3667   -4.6747    4.9827 H         1 <0>         0.1168
     64 H23        -3.4004   -5.1270    3.5569 H         1 <0>         0.0967
     65 H24        -1.9514   -4.7715    5.5384 H         1 <0>         0.1361
     66 H25        -2.5789   -3.1142    5.6998 H         1 <0>         0.1342
     67 H26       -11.1798   -1.3569    3.1412 H         1 <0>         0.1841
     68 H27       -12.5559   -2.5989    1.4856 H         1 <0>         0.1628
     69 H28       -11.4596   -4.3338    0.0836 H         1 <0>         0.1837
     70 H29        -1.1805   -4.1666    3.3452 H         1 <0>         0.4233
@<TRIPOS>BOND
     1    1    6 ar
     2    1    2 ar
     3    1   44 1
     4    2    3 ar
     5    2   45 1
     6    3    4 ar
     7    3   46 1
     8    4    5 ar
     9    4    7 1
    10    5    6 ar
    11    5   47 1
    12    6   48 1
    13    7   18 ar
    14    7    8 ar
    15    8    9 ar
    16    8   49 1
    17    9   15 1
    18    9   10 ar
    19   10   11 1
    20   10   17 ar
    21   11   12 2
    22   11   50 1
    23   12   13 1
    24   12   51 1
    25   13   14 1
    26   13   15 am
    27   15   16 2
    28   17   18 ar
    29   18   19 1
    30   19   24 ar
    31   19   20 ar
    32   20   21 ar
    33   20   52 1
    34   21   22 ar
    35   21   53 1
    36   22   23 ar
    37   22   25 1
    38   23   24 ar
    39   23   54 1
    40   24   55 1
    41   25   26 1
    42   25   56 1
    43   25   57 1
    44   26   31 1
    45   26   27 1
    46   26   70 1
    47   27   28 1
    48   27   58 1
    49   27   59 1
    50   28   29 1
    51   28   60 1
    52   28   61 1
    53   29   30 1
    54   29   62 1
    55   29   32 1
    56   30   31 1
    57   30   63 1
    58   30   64 1
    59   31   65 1
    60   31   66 1
    61   32   33 1
    62   32   37 2
    63   33   35 2
    64   34   36 1
    65   35   38 1
    66   35   36 1
    67   36   37 1
    68   38   43 ar
    69   38   39 ar
    70   39   40 ar
    71   40   41 ar
    72   40   67 1
    73   41   42 ar
    74   41   68 1
    75   42   43 ar
    76   42   69 1
@<TRIPOS>MOLECULE
CHEMBL447114
   70    76     0     0     0
SMALL
USER_CHARGES

@<TRIPOS>ATOM
      1 C1         -0.0167    1.3792    0.0096 C.ar      1 <0>        -0.1093
      2 C2          1.1686    2.0925    0.0021 C.ar      1 <0>        -0.1108
      3 C3          2.3774    1.4271   -0.0130 C.ar      1 <0>        -0.1028
      4 C4          2.4026    0.0331   -0.0207 C.ar      1 <0>        -0.0485
      5 C5          1.2048   -0.6804   -0.0131 C.ar      1 <0>        -0.1011
      6 C6          0.0021   -0.0041    0.0020 C.ar      1 <0>        -0.1224
      7 C7          3.6977   -0.6874   -0.0375 C.ar      1 <0>        -0.1088
      8 C8          4.6806   -0.3453   -0.9625 C.ar      1 <0>         0.0163
      9 C9          5.8811   -1.0557   -0.9345 C.ar      1 <0>        -0.1975
     10 C10         6.0604   -2.0873    0.0193 C.ar      1 <0>         0.2203
     11 C11         7.3333   -2.8108    0.0176 C.2       1 <0>        -0.2030
     12 C12         8.2816   -2.4813   -0.8749 C.2       1 <0>         0.1440
     13 N1          8.1107   -1.4880   -1.7936 N.am      1 <0>        -0.6308
     14 H1          8.8309   -1.2936   -2.4136 H         1 <0>         0.4233
     15 C13         6.9738   -0.7679   -1.8686 C.2       1 <0>         0.5515
     16 O1          6.8556    0.1116   -2.7027 O.2       1 <0>        -0.5113
     17 N2          5.0960   -2.3805    0.8833 N.ar      1 <0>        -0.4694
     18 C14         3.9485   -1.7214    0.8861 C.ar      1 <0>         0.2057
     19 C15         2.9057   -2.0818    1.8744 C.ar      1 <0>        -0.0117
     20 C16         2.0776   -1.0955    2.4098 C.ar      1 <0>        -0.0797
     21 C17         1.1080   -1.4374    3.3301 C.ar      1 <0>        -0.1002
     22 C18         0.9565   -2.7555    3.7219 C.ar      1 <0>        -0.1511
     23 C19         1.7748   -3.7384    3.1945 C.ar      1 <0>        -0.0975
     24 C20         2.7442   -3.4097    2.2691 C.ar      1 <0>        -0.0742
     25 C21        -0.1041   -3.1222    4.7279 C.3       1 <0>         0.0435
     26 N3         -1.3543   -3.4428    4.0264 N.4       1 <0>        -0.3846
     27 C22        -1.8526   -2.2425    3.3442 C.3       1 <0>        -0.0124
     28 C23        -3.1108   -2.5903    2.5458 C.3       1 <0>        -0.1389
     29 C24        -4.1847   -3.1195    3.5007 C.3       1 <0>        -0.0156
     30 C25        -3.6277   -4.3266    4.2610 C.3       1 <0>        -0.1495
     31 C26        -2.3504   -3.9145    4.9959 C.3       1 <0>        -0.0021
     32 C27        -5.3989   -3.5373    2.7118 C.2       1 <0>         0.2713
     33 N4         -6.4531   -2.8011    2.4832 N.2       1 <0>        -0.4835
     34 H2         -4.9613   -5.4782    2.1146 H         1 <0>         0.4421
     35 C28        -7.3374   -3.4902    1.7489 C.2       1 <0>         0.2918
     36 N5         -6.8427   -4.6840    1.5039 N.2       1 <0>        -0.2393
     37 N6         -5.5801   -4.7312    2.1171 N.pl3     1 <0>        -0.4749
     38 C29        -8.6559   -2.9898    1.2893 C.ar      1 <0>         0.3842
     39 N7         -9.0272   -1.7573    1.6073 N.ar      1 <0>        -0.4790
     40 C30       -10.1957   -1.2808    1.2136 C.ar      1 <0>         0.1514
     41 C31       -11.0358   -2.0867    0.4597 C.ar      1 <0>        -0.2083
     42 C32       -10.6163   -3.3707    0.1449 C.ar      1 <0>         0.1531
     43 N8         -9.4331   -3.7838    0.5655 N.ar      1 <0>        -0.4886
     44 H3         -0.9603    1.9042    0.0260 H         1 <0>         0.1268
     45 H4          1.1477    3.1723    0.0078 H         1 <0>         0.1305
     46 H5          3.3021    1.9851   -0.0192 H         1 <0>         0.1282
     47 H6          1.2182   -1.7603   -0.0191 H         1 <0>         0.1194
     48 H7         -0.9264   -0.5557    0.0079 H         1 <0>         0.1219
     49 H8          4.5186    0.4455   -1.6799 H         1 <0>         0.1563
     50 H9          7.5087   -3.6039    0.7294 H         1 <0>         0.1603
     51 H10         9.2154   -3.0236   -0.8643 H         1 <0>         0.1742
     52 H11         2.1952   -0.0661    2.1049 H         1 <0>         0.1438
     53 H12         0.4664   -0.6745    3.7456 H         1 <0>         0.1356
     54 H13         1.6520   -4.7656    3.5045 H         1 <0>         0.1354
     55 H14         3.3793   -4.1785    1.8544 H         1 <0>         0.1425
     56 H15         0.2234   -3.9892    5.3015 H         1 <0>         0.1398
     57 H16        -0.2710   -2.2823    5.4023 H         1 <0>         0.1387
     58 H17        -2.0917   -1.4779    4.0834 H         1 <0>         0.1368
     59 H18        -1.0861   -1.8652    2.6674 H         1 <0>         0.1395
     60 H19        -3.4802   -1.6974    2.0415 H         1 <0>         0.1247
     61 H20        -2.8728   -3.3547    1.8061 H         1 <0>         0.0904
     62 H21        -4.4599   -2.3380    4.2089 H         1 <0>         0.1314
     63 H22        -4.3667   -4.6747    4.9827 H         1 <0>         0.1239
     64 H23        -3.4004   -5.1270    3.5569 H         1 <0>         0.0887
     65 H24        -1.9514   -4.7715    5.5384 H         1 <0>         0.1391
     66 H25        -2.5789   -3.1142    5.6998 H         1 <0>         0.1377
     67 H26       -10.4927   -0.2762    1.4761 H         1 <0>         0.1803
     68 H27       -11.9959   -1.7225    0.1254 H         1 <0>         0.1593
     69 H28       -11.2469   -4.0236   -0.4402 H         1 <0>         0.1804
     70 H29        -1.1805   -4.1666    3.3452 H         1 <0>         0.4222
@<TRIPOS>BOND
     1    1    6 ar
     2    1    2 ar
     3    1   44 1
     4    2    3 ar
     5    2   45 1
     6    3    4 ar
     7    3   46 1
     8    4    5 ar
     9    4    7 1
    10    5    6 ar
    11    5   47 1
    12    6   48 1
    13    7   18 ar
    14    7    8 ar
    15    8    9 ar
    16    8   49 1
    17    9   15 1
    18    9   10 ar
    19   10   11 1
    20   10   17 ar
    21   11   12 2
    22   11   50 1
    23   12   13 1
    24   12   51 1
    25   13   14 1
    26   13   15 am
    27   15   16 2
    28   17   18 ar
    29   18   19 1
    30   19   24 ar
    31   19   20 ar
    32   20   21 ar
    33   20   52 1
    34   21   22 ar
    35   21   53 1
    36   22   23 ar
    37   22   25 1
    38   23   24 ar
    39   23   54 1
    40   24   55 1
    41   25   26 1
    42   25   56 1
    43   25   57 1
    44   26   31 1
    45   26   27 1
    46   26   70 1
    47   27   28 1
    48   27   58 1
    49   27   59 1
    50   28   29 1
    51   28   60 1
    52   28   61 1
    53   29   30 1
    54   29   62 1
    55   29   32 1
    56   30   31 1
    57   30   63 1
    58   30   64 1
    59   31   65 1
    60   31   66 1
    61   32   33 2
    62   32   37 1
    63   33   35 1
    64   34   37 1
    65   35   38 1
    66   35   36 2
    67   36   37 1
    68   38   43 ar
    69   38   39 ar
    70   39   40 ar
    71   40   41 ar
    72   40   67 1
    73   41   42 ar
    74   41   68 1
    75   42   43 ar
    76   42   69 1
@<TRIPOS>MOLECULE
CHEMBL523859
   65    68     0     0     0
SMALL
USER_CHARGES

@<TRIPOS>ATOM
      1 C1         -0.0187    1.5258    0.0104 C.3       1 <0>        -0.1659
      2 C2          0.0021   -0.0041    0.0020 C.3       1 <0>         0.0981
      3 N1          0.6878   -0.4765   -1.2033 N.pl3     1 <0>        -0.4443
      4 C3          0.1084   -0.7452   -2.4220 C.ar      1 <0>         0.0727
      5 C4         -1.1885   -0.6848   -2.9333 C.ar      1 <0>         0.0957
      6 C5         -1.4068   -1.0423   -4.2530 C.ar      1 <0>         0.0215
      7 N2         -0.4156   -1.4373   -5.0310 N.ar      1 <0>        -0.4298
      8 C6          0.8360   -1.5144   -4.6003 C.ar      1 <0>         0.2957
      9 C7          1.1491   -1.1685   -3.2692 C.ar      1 <0>         0.0653
     10 N3          2.2847   -1.1401   -2.5504 N.2       1 <0>        -0.4368
     11 C8          2.0279   -0.7287   -1.3319 C.2       1 <0>         0.3466
     12 C9          3.0324   -0.5655   -0.2583 C.2       1 <0>         0.1283
     13 C10         4.4724   -0.8253   -0.3802 C.2       1 <0>         0.3644
     14 N4          5.0335   -0.5707    0.7697 N.2       1 <0>        -0.3422
     15 O1          4.0212   -0.1472    1.6654 O.3       1 <0>         0.0513
     16 N5          2.7917   -0.1594    0.9619 N.2       1 <0>        -0.2463
     17 N6          5.1251   -1.2670   -1.5235 N.pl3     1 <0>        -0.8000
     18 C11         1.8718   -1.9500   -5.4881 C.1       1 <0>        -0.1253
     19 C12         2.7209   -2.3071   -6.2159 C.1       1 <0>        -0.1202
     20 C13         3.7856   -2.7549   -7.1284 C.3       1 <0>         0.2396
     21 C14         5.1250   -2.7540   -6.3888 C.3       1 <0>        -0.1391
     22 C15         3.4749   -4.1704   -7.6190 C.3       1 <0>        -0.1761
     23 O2          3.8585   -1.8683   -8.2468 O.3       1 <0>        -0.5434
     24 O3         -2.2219   -0.2814   -2.1476 O.3       1 <0>        -0.3000
     25 C16        -3.5183   -0.2475   -2.7478 C.3       1 <0>         0.0413
     26 C17        -4.5450    0.2275   -1.7176 C.3       1 <0>        -0.1480
     27 C18        -5.9330    0.2637   -2.3602 C.3       1 <0>         0.0402
     28 H1         -5.9015    0.8802   -3.2586 H         1 <0>         0.1500
     29 C19        -6.9380    0.8560   -1.3702 C.3       1 <0>        -0.0966
     30 C20        -8.2779    1.0057   -2.0436 C.ar      1 <0>        -0.1317
     31 C21        -8.5890    2.1754   -2.7114 C.ar      1 <0>        -0.1043
     32 C22        -9.8180    2.3127   -3.3291 C.ar      1 <0>        -0.1051
     33 C23       -10.7358    1.2801   -3.2793 C.ar      1 <0>        -0.1020
     34 C24       -10.4243    0.1101   -2.6122 C.ar      1 <0>        -0.1072
     35 C25        -9.1937   -0.0288   -1.9982 C.ar      1 <0>        -0.1415
     36 N7         -6.3433   -1.1009   -2.7170 N.4       1 <0>        -0.6417
     37 H2          1.0039    1.9031    0.0027 H         1 <0>         0.0655
     38 H3         -0.5459    1.8868   -0.8726 H         1 <0>         0.0632
     39 H4         -0.5289    1.8773    0.9072 H         1 <0>         0.0878
     40 H5          0.5293   -0.3651    0.8851 H         1 <0>         0.1105
     41 H6         -1.0205   -0.3814    0.0098 H         1 <0>         0.1032
     42 H7         -2.4085   -0.9976   -4.6543 H         1 <0>         0.1685
     43 H8          4.6220   -1.4309   -2.3365 H         1 <0>         0.4307
     44 H9          6.0842   -1.4116   -1.5092 H         1 <0>         0.4217
     45 H10         5.0694   -3.4303   -5.5357 H         1 <0>         0.0758
     46 H11         5.9134   -3.0856   -7.0645 H         1 <0>         0.0790
     47 H12         5.3464   -1.7456   -6.0392 H         1 <0>         0.0695
     48 H13         2.5207   -4.1710   -8.1459 H         1 <0>         0.0647
     49 H14         4.2633   -4.5020   -8.2948 H         1 <0>         0.0804
     50 H15         3.4193   -4.8466   -6.7660 H         1 <0>         0.0728
     51 H16         3.0424   -1.8186   -8.7631 H         1 <0>         0.3830
     52 H17        -3.5089    0.4388   -3.5945 H         1 <0>         0.0852
     53 H18        -3.7852   -1.2465   -3.0928 H         1 <0>         0.0604
     54 H19        -4.5544   -0.4589   -0.8709 H         1 <0>         0.1051
     55 H20        -4.2781    1.2264   -1.3726 H         1 <0>         0.1286
     56 H21        -7.0354    0.1928   -0.5107 H         1 <0>         0.1015
     57 H22        -6.5875    1.8330   -1.0373 H         1 <0>         0.1237
     58 H23        -7.8720    2.9821   -2.7503 H         1 <0>         0.1301
     59 H24       -10.0614    3.2268   -3.8502 H         1 <0>         0.1332
     60 H25       -11.6963    1.3877   -3.7613 H         1 <0>         0.1329
     61 H26       -11.1415   -0.6965   -2.5731 H         1 <0>         0.1323
     62 H27        -8.9489   -0.9444   -1.4802 H         1 <0>         0.1221
     63 H28        -7.2587   -1.0770   -3.1408 H         1 <0>         0.4379
     64 H29        -5.6805   -1.4915   -3.3699 H         1 <0>         0.4331
     65 H30        -6.3725   -1.6716   -1.8854 H         1 <0>         0.4346
@<TRIPOS>BOND
     1    1    2 1
     2    1   37 1
     3    1   38 1
     4    1   39 1
     5    2    3 1
     6    2   40 1
     7    2   41 1
     8    3   11 1
     9    3    4 1
    10    4    9 ar
    11    4    5 ar
    12    5    6 ar
    13    5   24 1
    14    6    7 ar
    15    6   42 1
    16    7    8 ar
    17    8    9 ar
    18    8   18 1
    19    9   10 1
    20   10   11 2
    21   11   12 1
    22   12   16 2
    23   12   13 1
    24   13   14 2
    25   13   17 1
    26   14   15 1
    27   15   16 1
    28   17   43 1
    29   17   44 1
    30   18   19 3
    31   19   20 1
    32   20   21 1
    33   20   22 1
    34   20   23 1
    35   21   45 1
    36   21   46 1
    37   21   47 1
    38   22   48 1
    39   22   49 1
    40   22   50 1
    41   23   51 1
    42   24   25 1
    43   25   26 1
    44   25   52 1
    45   25   53 1
    46   26   27 1
    47   26   54 1
    48   26   55 1
    49   27   28 1
    50   27   29 1
    51   27   36 1
    52   29   30 1
    53   29   56 1
    54   29   57 1
    55   30   35 ar
    56   30   31 ar
    57   31   32 ar
    58   31   58 1
    59   32   33 ar
    60   32   59 1
    61   33   34 ar
    62   33   60 1
    63   34   35 ar
    64   34   61 1
    65   35   62 1
    66   36   63 1
    67   36   64 1
    68   36   65 1
@<TRIPOS>MOLECULE
CHEMBL446966
   75    81     0     0     0
SMALL
USER_CHARGES

@<TRIPOS>ATOM
      1 C1         -0.0173    1.4248    0.0099 C.3       1 <0>         0.0351
      2 O1          0.0021   -0.0041    0.0020 O.3       1 <0>        -0.2985
      3 C2          0.6045   -0.6058   -1.0535 C.ar      1 <0>         0.3518
      4 C3          0.6486   -1.9943   -1.1175 C.ar      1 <0>        -0.1860
      5 C4          1.2634   -2.6009   -2.1947 C.ar      1 <0>        -0.0144
      6 C5          1.8225   -1.7859   -3.1878 C.ar      1 <0>        -0.1494
      7 C6          1.7381   -0.4013   -3.0528 C.ar      1 <0>         0.2098
      8 N1          1.1374    0.1364   -2.0106 N.ar      1 <0>        -0.5374
      9 C7          2.4928   -2.3860   -4.3618 C.2       1 <0>         0.3610
     10 N2          3.0537   -1.7279   -5.3564 N.2       1 <0>        -0.5280
     11 H1          2.3384   -4.4408   -4.0464 H         1 <0>         0.4461
     12 C8          3.5585   -2.5883   -6.2365 C.2       1 <0>         0.2242
     13 N3          3.3317   -3.8084   -5.8243 N.2       1 <0>        -0.3040
     14 N4          2.6447   -3.7083   -4.6036 N.pl3     1 <0>        -0.4712
     15 C9          4.2775   -2.2158   -7.5075 C.3       1 <0>         0.0007
     16 C10         3.5317   -2.8036   -8.7089 C.3       1 <0>        -0.1392
     17 C11         4.3095   -2.4894   -9.9887 C.3       1 <0>        -0.0036
     18 N5          5.6511   -3.0793   -9.9074 N.4       1 <0>        -0.3833
     19 C12         6.3976   -2.4683   -8.8012 C.3       1 <0>        -0.0106
     20 C13         5.7002   -2.7816   -7.4757 C.3       1 <0>        -0.1374
     21 C14         6.3659   -2.8420  -11.1686 C.3       1 <0>         0.0430
     22 C15         7.6952   -3.5510  -11.1337 C.ar      1 <0>        -0.1484
     23 C16         8.8110   -2.8990  -10.6399 C.ar      1 <0>        -0.1025
     24 C17        10.0309   -3.5430  -10.6053 C.ar      1 <0>        -0.0742
     25 C18        10.1376   -4.8538  -11.0696 C.ar      1 <0>        -0.0138
     26 C19         9.0092   -5.5057  -11.5663 C.ar      1 <0>        -0.0790
     27 C20         7.7936   -4.8532  -11.5905 C.ar      1 <0>        -0.0959
     28 C21        11.4444   -5.5505  -11.0357 C.ar      1 <0>         0.2069
     29 C22        11.4829   -6.9359  -10.7802 C.ar      1 <0>        -0.1084
     30 C23        12.7113   -7.5899  -10.7486 C.ar      1 <0>         0.0160
     31 C24        13.8618   -6.8330  -10.9743 C.ar      1 <0>        -0.1979
     32 C25        13.7462   -5.4441  -11.2248 C.ar      1 <0>         0.2197
     33 N6         12.5532   -4.8616  -11.2513 N.ar      1 <0>        -0.4692
     34 C26        14.9753   -4.6831  -11.4566 C.2       1 <0>        -0.2024
     35 C27        16.1610   -5.3138  -11.4257 C.2       1 <0>         0.1433
     36 N7         16.2740   -6.6513  -11.1846 N.am      1 <0>        -0.6308
     37 H2         17.1569   -7.0530  -11.1739 H         1 <0>         0.4231
     38 C28        15.1993   -7.4332  -10.9603 C.2       1 <0>         0.5516
     39 O2         15.3377   -8.6244  -10.7479 O.2       1 <0>        -0.5118
     40 C29        10.2279   -7.6890  -10.5470 C.ar      1 <0>        -0.0490
     41 C30         9.2911   -7.2203   -9.6268 C.ar      1 <0>        -0.1002
     42 C31         8.1244   -7.9258   -9.4138 C.ar      1 <0>        -0.1205
     43 C32         7.8834   -9.0959  -10.1112 C.ar      1 <0>        -0.1102
     44 C33         8.8093   -9.5661  -11.0252 C.ar      1 <0>        -0.1113
     45 C34         9.9768   -8.8659  -11.2511 C.ar      1 <0>        -0.1036
     46 H3          1.0053    1.8021    0.0021 H         1 <0>         0.0648
     47 H4         -0.5445    1.7859   -0.8732 H         1 <0>         0.0648
     48 H5         -0.5275    1.7763    0.9067 H         1 <0>         0.1041
     49 H6          0.2073   -2.5914   -0.3332 H         1 <0>         0.1556
     50 H7          1.3125   -3.6772   -2.2699 H         1 <0>         0.1425
     51 H8          2.1654    0.2370   -3.8119 H         1 <0>         0.1765
     52 H9          4.3189   -1.1304   -7.5981 H         1 <0>         0.1175
     53 H10         3.4458   -3.8838   -8.5910 H         1 <0>         0.0961
     54 H11         2.5365   -2.3633   -8.7704 H         1 <0>         0.1162
     55 H12         3.7811   -2.9064  -10.8460 H         1 <0>         0.1356
     56 H13         4.3945   -1.4091  -10.1057 H         1 <0>         0.1340
     57 H14         7.4109   -2.8696   -8.7818 H         1 <0>         0.1360
     58 H15         6.4382   -1.3884   -8.9435 H         1 <0>         0.1333
     59 H16         6.2551   -2.3256   -6.6557 H         1 <0>         0.1149
     60 H17         5.6594   -3.8614   -7.3322 H         1 <0>         0.0954
     61 H18         5.7726   -3.2230  -11.9998 H         1 <0>         0.1386
     62 H19         6.5282   -1.7720  -11.2985 H         1 <0>         0.1379
     63 H20         8.7271   -1.8839  -10.2810 H         1 <0>         0.1359
     64 H21        10.9013   -3.0329  -10.2199 H         1 <0>         0.1424
     65 H22         9.0857   -6.5208  -11.9272 H         1 <0>         0.1431
     66 H23         6.9182   -5.3585  -11.9708 H         1 <0>         0.1348
     67 H24        12.7722   -8.6507  -10.5549 H         1 <0>         0.1561
     68 H25        14.9290   -3.6218  -11.6514 H         1 <0>         0.1603
     69 H26        17.0592   -4.7397  -11.5988 H         1 <0>         0.1740
     70 H27         9.4784   -6.3071   -9.0815 H         1 <0>         0.1196
     71 H28         7.3983   -7.5639   -8.7010 H         1 <0>         0.1227
     72 H29         6.9689   -9.6447   -9.9413 H         1 <0>         0.1261
     73 H30         8.6161  -10.4806  -11.5662 H         1 <0>         0.1300
     74 H31        10.6967   -9.2314  -11.9684 H         1 <0>         0.1280
     75 H32         5.5716   -4.0728   -9.7500 H         1 <0>         0.4231
@<TRIPOS>BOND
     1    1    2 1
     2    1   46 1
     3    1   47 1
     4    1   48 1
     5    2    3 1
     6    3    8 ar
     7    3    4 ar
     8    4    5 ar
     9    4   49 1
    10    5    6 ar
    11    5   50 1
    12    6    7 ar
    13    6    9 1
    14    7    8 ar
    15    7   51 1
    16    9   10 2
    17    9   14 1
    18   10   12 1
    19   11   14 1
    20   12   15 1
    21   12   13 2
    22   13   14 1
    23   15   20 1
    24   15   16 1
    25   15   52 1
    26   16   17 1
    27   16   53 1
    28   16   54 1
    29   17   18 1
    30   17   55 1
    31   17   56 1
    32   18   19 1
    33   18   21 1
    34   18   75 1
    35   19   20 1
    36   19   57 1
    37   19   58 1
    38   20   59 1
    39   20   60 1
    40   21   22 1
    41   21   61 1
    42   21   62 1
    43   22   27 ar
    44   22   23 ar
    45   23   24 ar
    46   23   63 1
    47   24   25 ar
    48   24   64 1
    49   25   26 ar
    50   25   28 1
    51   26   27 ar
    52   26   65 1
    53   27   66 1
    54   28   33 ar
    55   28   29 ar
    56   29   30 ar
    57   29   40 1
    58   30   31 ar
    59   30   67 1
    60   31   38 1
    61   31   32 ar
    62   32   33 ar
    63   32   34 1
    64   34   35 2
    65   34   68 1
    66   35   36 1
    67   35   69 1
    68   36   37 1
    69   36   38 am
    70   38   39 2
    71   40   45 ar
    72   40   41 ar
    73   41   42 ar
    74   41   70 1
    75   42   43 ar
    76   42   71 1
    77   43   44 ar
    78   43   72 1
    79   44   45 ar
    80   44   73 1
    81   45   74 1
@<TRIPOS>MOLECULE
CHEMBL446966
   75    81     0     0     0
SMALL
USER_CHARGES

@<TRIPOS>ATOM
      1 C1         -0.0173    1.4248    0.0099 C.3       1 <0>         0.0366
      2 O1          0.0021   -0.0041    0.0020 O.3       1 <0>        -0.3012
      3 C2         -1.1981   -0.6363    0.0101 C.ar      1 <0>         0.3435
      4 C3         -1.2412   -2.0258    0.0087 C.ar      1 <0>        -0.1914
      5 C4         -2.4670   -2.6628    0.0170 C.ar      1 <0>        -0.0022
      6 C5         -3.6247   -1.8773    0.0264 C.ar      1 <0>        -0.1259
      7 C6         -3.5008   -0.4911    0.0272 C.ar      1 <0>         0.1942
      8 N1         -2.3116    0.0777    0.0245 N.ar      1 <0>        -0.5401
      9 C7         -4.9655   -2.5130    0.0350 C.2       1 <0>         0.2955
     10 N2         -6.1375   -1.8638    0.0444 N.2       1 <0>        -0.5168
     11 H1         -7.0853   -4.8015    0.0467 H         1 <0>         0.4398
     12 C8         -7.1201   -2.7255    0.0501 C.2       1 <0>         0.2788
     13 N3         -6.5958   -3.9641    0.0445 N.pl3     1 <0>        -0.4769
     14 N4         -5.2003   -3.8069    0.0290 N.2       1 <0>        -0.2905
     15 C9         -8.5890   -2.3889    0.0615 C.3       1 <0>        -0.0172
     16 C10        -9.3474   -3.4336    0.8854 C.3       1 <0>        -0.1489
     17 C11       -10.8462   -3.1313    0.8271 C.3       1 <0>        -0.0023
     18 N5        -11.3047   -3.1782   -0.5665 N.4       1 <0>        -0.3846
     19 C12       -10.6341   -2.1314   -1.3469 C.3       1 <0>        -0.0116
     20 C13        -9.1270   -2.3952   -1.3723 C.3       1 <0>        -0.1382
     21 C14       -12.7574   -2.9645   -0.6100 C.3       1 <0>         0.0434
     22 C15       -13.2479   -3.1340   -2.0248 C.ar      1 <0>        -0.1508
     23 C16       -13.2888   -2.0434   -2.8751 C.ar      1 <0>        -0.1023
     24 C17       -13.7370   -2.1923   -4.1716 C.ar      1 <0>        -0.0740
     25 C18       -14.1492   -3.4454   -4.6243 C.ar      1 <0>        -0.0118
     26 C19       -14.1056   -4.5410   -3.7625 C.ar      1 <0>        -0.0791
     27 C20       -13.6501   -4.3807   -2.4698 C.ar      1 <0>        -0.0960
     28 C21       -14.6318   -3.6119   -6.0149 C.ar      1 <0>         0.2057
     29 C22       -14.3583   -4.8110   -6.7028 C.ar      1 <0>        -0.1091
     30 C23       -14.8122   -4.9667   -8.0095 C.ar      1 <0>         0.0164
     31 C24       -15.5259   -3.9141   -8.5842 C.ar      1 <0>        -0.1974
     32 C25       -15.7630   -2.7380   -7.8321 C.ar      1 <0>         0.2203
     33 N6        -15.3161   -2.6341   -6.5860 N.ar      1 <0>        -0.4690
     34 C26       -16.5150   -1.6551   -8.4688 C.2       1 <0>        -0.2031
     35 C27       -16.9528   -1.8048   -9.7299 C.2       1 <0>         0.1443
     36 N7        -16.7254   -2.9367  -10.4556 N.am      1 <0>        -0.6306
     37 H2        -17.0654   -2.9887  -11.3626 H         1 <0>         0.4234
     38 C28       -16.0433   -3.9855   -9.9541 C.2       1 <0>         0.5515
     39 O2        -15.8586   -4.9808  -10.6312 O.2       1 <0>        -0.5112
     40 C29       -13.5946   -5.8956   -6.0417 C.ar      1 <0>        -0.0483
     41 C30       -12.3889   -5.6125   -5.4013 C.ar      1 <0>        -0.1007
     42 C31       -11.6822   -6.6264   -4.7875 C.ar      1 <0>        -0.1213
     43 C32       -12.1678   -7.9216   -4.8067 C.ar      1 <0>        -0.1105
     44 C33       -13.3632   -8.2086   -5.4409 C.ar      1 <0>        -0.1108
     45 C34       -14.0819   -7.2019   -6.0528 C.ar      1 <0>        -0.1031
     46 H3          1.0053    1.8021    0.0021 H         1 <0>         0.1019
     47 H4         -0.5445    1.7859   -0.8732 H         1 <0>         0.0627
     48 H5         -0.5275    1.7763    0.9067 H         1 <0>         0.0629
     49 H6         -0.3269   -2.6006    0.0010 H         1 <0>         0.1523
     50 H7         -2.5301   -3.7410    0.0158 H         1 <0>         0.1502
     51 H8         -4.3879    0.1249    0.0341 H         1 <0>         0.1711
     52 H9         -8.7334   -1.4018    0.5007 H         1 <0>         0.1302
     53 H10        -9.1600   -4.4262    0.4758 H         1 <0>         0.0882
     54 H11        -9.0086   -3.3966    1.9208 H         1 <0>         0.1234
     55 H12       -11.3891   -3.8731    1.4128 H         1 <0>         0.1388
     56 H13       -11.0325   -2.1387    1.2372 H         1 <0>         0.1376
     57 H14       -11.0203   -2.1350   -2.3662 H         1 <0>         0.1390
     58 H15       -10.8248   -1.1601   -0.8905 H         1 <0>         0.1367
     59 H16        -8.6308   -1.6160   -1.9507 H         1 <0>         0.1241
     60 H17        -8.9351   -3.3663   -1.8287 H         1 <0>         0.0898
     61 H18       -13.2510   -3.6913    0.0352 H         1 <0>         0.1394
     62 H19       -12.9869   -1.9567   -0.2642 H         1 <0>         0.1391
     63 H20       -12.9697   -1.0735   -2.5232 H         1 <0>         0.1363
     64 H21       -13.7688   -1.3401   -4.8343 H         1 <0>         0.1431
     65 H22       -14.4235   -5.5138   -4.1074 H         1 <0>         0.1433
     66 H23       -13.6118   -5.2292   -1.8028 H         1 <0>         0.1346
     67 H24       -14.6176   -5.8741   -8.5618 H         1 <0>         0.1563
     68 H25       -16.7166   -0.7422   -7.9281 H         1 <0>         0.1605
     69 H26       -17.5064   -0.9977  -10.1866 H         1 <0>         0.1743
     70 H27       -12.0086   -4.6018   -5.3859 H         1 <0>         0.1195
     71 H28       -10.7479   -6.4085   -4.2914 H         1 <0>         0.1214
     72 H29       -11.6112   -8.7119   -4.3250 H         1 <0>         0.1260
     73 H30       -13.7371   -9.2218   -5.4533 H         1 <0>         0.1304
     74 H31       -15.0174   -7.4262   -6.5435 H         1 <0>         0.1284
     75 H32       -11.0876   -4.0813   -0.9607 H         1 <0>         0.4221
@<TRIPOS>BOND
     1    1    2 1
     2    1   46 1
     3    1   47 1
     4    1   48 1
     5    2    3 1
     6    3    8 ar
     7    3    4 ar
     8    4    5 ar
     9    4   49 1
    10    5    6 ar
    11    5   50 1
    12    6    7 ar
    13    6    9 1
    14    7    8 ar
    15    7   51 1
    16    9   10 1
    17    9   14 2
    18   10   12 2
    19   11   13 1
    20   12   15 1
    21   12   13 1
    22   13   14 1
    23   15   20 1
    24   15   16 1
    25   15   52 1
    26   16   17 1
    27   16   53 1
    28   16   54 1
    29   17   18 1
    30   17   55 1
    31   17   56 1
    32   18   19 1
    33   18   21 1
    34   18   75 1
    35   19   20 1
    36   19   57 1
    37   19   58 1
    38   20   59 1
    39   20   60 1
    40   21   22 1
    41   21   61 1
    42   21   62 1
    43   22   27 ar
    44   22   23 ar
    45   23   24 ar
    46   23   63 1
    47   24   25 ar
    48   24   64 1
    49   25   26 ar
    50   25   28 1
    51   26   27 ar
    52   26   65 1
    53   27   66 1
    54   28   33 ar
    55   28   29 ar
    56   29   30 ar
    57   29   40 1
    58   30   31 ar
    59   30   67 1
    60   31   38 1
    61   31   32 ar
    62   32   33 ar
    63   32   34 1
    64   34   35 2
    65   34   68 1
    66   35   36 1
    67   35   69 1
    68   36   37 1
    69   36   38 am
    70   38   39 2
    71   40   45 ar
    72   40   41 ar
    73   41   42 ar
    74   41   70 1
    75   42   43 ar
    76   42   71 1
    77   43   44 ar
    78   43   72 1
    79   44   45 ar
    80   44   73 1
    81   45   74 1
@<TRIPOS>MOLECULE
CHEMBL444136
   70    76     0     0     0
SMALL
USER_CHARGES

@<TRIPOS>ATOM
      1 C1         -0.0167    1.3792    0.0096 C.ar      1 <0>        -0.1099
      2 C2          1.1686    2.0925    0.0021 C.ar      1 <0>        -0.1112
      3 C3          2.3774    1.4271   -0.0130 C.ar      1 <0>        -0.1030
      4 C4          2.4026    0.0331   -0.0207 C.ar      1 <0>        -0.0481
      5 C5          1.2048   -0.6804   -0.0131 C.ar      1 <0>        -0.1003
      6 C6          0.0021   -0.0041    0.0020 C.ar      1 <0>        -0.1222
      7 C7          3.6977   -0.6874   -0.0375 C.ar      1 <0>        -0.1091
      8 C8          4.6806   -0.3453   -0.9625 C.ar      1 <0>         0.0163
      9 C9          5.8811   -1.0557   -0.9345 C.ar      1 <0>        -0.1980
     10 C10         6.0604   -2.0873    0.0193 C.ar      1 <0>         0.2202
     11 C11         7.3333   -2.8108    0.0176 C.2       1 <0>        -0.2025
     12 C12         8.2816   -2.4813   -0.8749 C.2       1 <0>         0.1435
     13 N1          8.1107   -1.4880   -1.7936 N.am      1 <0>        -0.6309
     14 H1          8.8309   -1.2936   -2.4136 H         1 <0>         0.4231
     15 C13         6.9738   -0.7679   -1.8686 C.2       1 <0>         0.5517
     16 O1          6.8556    0.1116   -2.7027 O.2       1 <0>        -0.5118
     17 N2          5.0960   -2.3805    0.8833 N.ar      1 <0>        -0.4694
     18 C14         3.9485   -1.7214    0.8861 C.ar      1 <0>         0.2070
     19 C15         2.9057   -2.0818    1.8744 C.ar      1 <0>        -0.0135
     20 C16         2.0776   -1.0955    2.4098 C.ar      1 <0>        -0.0800
     21 C17         1.1080   -1.4374    3.3301 C.ar      1 <0>        -0.1004
     22 C18         0.9565   -2.7555    3.7219 C.ar      1 <0>        -0.1491
     23 C19         1.7748   -3.7384    3.1945 C.ar      1 <0>        -0.0973
     24 C20         2.7442   -3.4097    2.2691 C.ar      1 <0>        -0.0738
     25 C21        -0.1041   -3.1222    4.7279 C.3       1 <0>         0.0431
     26 N3         -1.3543   -3.4428    4.0264 N.4       1 <0>        -0.3836
     27 C22        -1.8526   -2.2425    3.3442 C.3       1 <0>        -0.0115
     28 C23        -3.1108   -2.5903    2.5458 C.3       1 <0>        -0.1381
     29 C24        -4.1847   -3.1195    3.5007 C.3       1 <0>         0.0011
     30 C25        -3.6277   -4.3266    4.2610 C.3       1 <0>        -0.1402
     31 C26        -2.3504   -3.9145    4.9959 C.3       1 <0>        -0.0034
     32 C27        -5.3989   -3.5373    2.7118 C.2       1 <0>         0.2224
     33 N4         -6.6196   -3.0305    2.8515 N.2       1 <0>        -0.5142
     34 H2         -7.0745   -5.1192    0.6118 H         1 <0>         0.4547
     35 C28        -7.4453   -3.6180    2.0097 C.2       1 <0>         0.3511
     36 N5         -6.7378   -4.5308    1.3057 N.pl3     1 <0>        -0.4455
     37 N6         -5.4171   -4.4526    1.7768 N.2       1 <0>        -0.2949
     38 C29        -8.8896   -3.3307    1.8612 C.ar      1 <0>         0.1119
     39 C30        -9.4944   -2.3535    2.6535 C.ar      1 <0>         0.1154
     40 N7        -10.7827   -2.1016    2.5169 N.ar      1 <0>        -0.4312
     41 C31       -11.4994   -2.7730    1.6316 C.ar      1 <0>         0.0813
     42 C32       -10.9036   -3.7436    0.8439 C.ar      1 <0>         0.0631
     43 N8         -9.6148   -3.9991    0.9685 N.ar      1 <0>        -0.4273
     44 H3         -0.9603    1.9042    0.0260 H         1 <0>         0.1261
     45 H4          1.1477    3.1723    0.0078 H         1 <0>         0.1301
     46 H5          3.3021    1.9851   -0.0192 H         1 <0>         0.1281
     47 H6          1.2182   -1.7603   -0.0191 H         1 <0>         0.1199
     48 H7         -0.9264   -0.5557    0.0079 H         1 <0>         0.1221
     49 H8          4.5186    0.4455   -1.6799 H         1 <0>         0.1561
     50 H9          7.5087   -3.6039    0.7294 H         1 <0>         0.1603
     51 H10         9.2154   -3.0236   -0.8643 H         1 <0>         0.1741
     52 H11         2.1952   -0.0661    2.1049 H         1 <0>         0.1434
     53 H12         0.4664   -0.6745    3.7456 H         1 <0>         0.1353
     54 H13         1.6520   -4.7656    3.5045 H         1 <0>         0.1357
     55 H14         3.3793   -4.1785    1.8544 H         1 <0>         0.1423
     56 H15         0.2234   -3.9892    5.3015 H         1 <0>         0.1391
     57 H16        -0.2710   -2.2823    5.4023 H         1 <0>         0.1377
     58 H17        -2.0917   -1.4779    4.0834 H         1 <0>         0.1336
     59 H18        -1.0861   -1.8652    2.6674 H         1 <0>         0.1368
     60 H19        -3.4802   -1.6974    2.0415 H         1 <0>         0.1156
     61 H20        -2.8728   -3.3547    1.8061 H         1 <0>         0.0961
     62 H21        -4.4599   -2.3380    4.2089 H         1 <0>         0.1191
     63 H22        -4.3667   -4.6747    4.9827 H         1 <0>         0.1168
     64 H23        -3.4004   -5.1270    3.5569 H         1 <0>         0.0966
     65 H24        -1.9514   -4.7715    5.5384 H         1 <0>         0.1362
     66 H25        -2.5789   -3.1142    5.6998 H         1 <0>         0.1342
     67 H26        -8.9095   -1.8050    3.3770 H         1 <0>         0.1855
     68 H27       -12.5534   -2.5640    1.5227 H         1 <0>         0.1846
     69 H28       -11.4939   -4.2896    0.1228 H         1 <0>         0.1856
     70 H29        -1.1805   -4.1666    3.3452 H         1 <0>         0.4234
@<TRIPOS>BOND
     1    1    6 ar
     2    1    2 ar
     3    1   44 1
     4    2    3 ar
     5    2   45 1
     6    3    4 ar
     7    3   46 1
     8    4    5 ar
     9    4    7 1
    10    5    6 ar
    11    5   47 1
    12    6   48 1
    13    7   18 ar
    14    7    8 ar
    15    8    9 ar
    16    8   49 1
    17    9   15 1
    18    9   10 ar
    19   10   11 1
    20   10   17 ar
    21   11   12 2
    22   11   50 1
    23   12   13 1
    24   12   51 1
    25   13   14 1
    26   13   15 am
    27   15   16 2
    28   17   18 ar
    29   18   19 1
    30   19   24 ar
    31   19   20 ar
    32   20   21 ar
    33   20   52 1
    34   21   22 ar
    35   21   53 1
    36   22   23 ar
    37   22   25 1
    38   23   24 ar
    39   23   54 1
    40   24   55 1
    41   25   26 1
    42   25   56 1
    43   25   57 1
    44   26   31 1
    45   26   27 1
    46   26   70 1
    47   27   28 1
    48   27   58 1
    49   27   59 1
    50   28   29 1
    51   28   60 1
    52   28   61 1
    53   29   30 1
    54   29   62 1
    55   29   32 1
    56   30   31 1
    57   30   63 1
    58   30   64 1
    59   31   65 1
    60   31   66 1
    61   32   33 1
    62   32   37 2
    63   33   35 2
    64   34   36 1
    65   35   38 1
    66   35   36 1
    67   36   37 1
    68   38   43 ar
    69   38   39 ar
    70   39   40 ar
    71   39   67 1
    72   40   41 ar
    73   41   42 ar
    74   41   68 1
    75   42   43 ar
    76   42   69 1
@<TRIPOS>MOLECULE
CHEMBL444136
   70    76     0     0     0
SMALL
USER_CHARGES

@<TRIPOS>ATOM
      1 C1         -0.0167    1.3792    0.0096 C.ar      1 <0>        -0.1093
      2 C2          1.1686    2.0925    0.0021 C.ar      1 <0>        -0.1107
      3 C3          2.3774    1.4271   -0.0130 C.ar      1 <0>        -0.1027
      4 C4          2.4026    0.0331   -0.0207 C.ar      1 <0>        -0.0484
      5 C5          1.2048   -0.6804   -0.0131 C.ar      1 <0>        -0.1011
      6 C6          0.0021   -0.0041    0.0020 C.ar      1 <0>        -0.1225
      7 C7          3.6977   -0.6874   -0.0375 C.ar      1 <0>        -0.1089
      8 C8          4.6806   -0.3453   -0.9625 C.ar      1 <0>         0.0164
      9 C9          5.8811   -1.0557   -0.9345 C.ar      1 <0>        -0.1974
     10 C10         6.0604   -2.0873    0.0193 C.ar      1 <0>         0.2204
     11 C11         7.3333   -2.8108    0.0176 C.2       1 <0>        -0.2032
     12 C12         8.2816   -2.4813   -0.8749 C.2       1 <0>         0.1442
     13 N1          8.1107   -1.4880   -1.7936 N.am      1 <0>        -0.6308
     14 H1          8.8309   -1.2936   -2.4136 H         1 <0>         0.4234
     15 C13         6.9738   -0.7679   -1.8686 C.2       1 <0>         0.5515
     16 O1          6.8556    0.1116   -2.7027 O.2       1 <0>        -0.5112
     17 N2          5.0960   -2.3805    0.8833 N.ar      1 <0>        -0.4694
     18 C14         3.9485   -1.7214    0.8861 C.ar      1 <0>         0.2055
     19 C15         2.9057   -2.0818    1.8744 C.ar      1 <0>        -0.0114
     20 C16         2.0776   -1.0955    2.4098 C.ar      1 <0>        -0.0796
     21 C17         1.1080   -1.4374    3.3301 C.ar      1 <0>        -0.1003
     22 C18         0.9565   -2.7555    3.7219 C.ar      1 <0>        -0.1513
     23 C19         1.7748   -3.7384    3.1945 C.ar      1 <0>        -0.0975
     24 C20         2.7442   -3.4097    2.2691 C.ar      1 <0>        -0.0742
     25 C21        -0.1041   -3.1222    4.7279 C.3       1 <0>         0.0435
     26 N3         -1.3543   -3.4428    4.0264 N.4       1 <0>        -0.3845
     27 C22        -1.8526   -2.2425    3.3442 C.3       1 <0>        -0.0125
     28 C23        -3.1108   -2.5903    2.5458 C.3       1 <0>        -0.1386
     29 C24        -4.1847   -3.1195    3.5007 C.3       1 <0>        -0.0166
     30 C25        -3.6277   -4.3266    4.2610 C.3       1 <0>        -0.1492
     31 C26        -2.3504   -3.9145    4.9959 C.3       1 <0>        -0.0022
     32 C27        -5.3989   -3.5373    2.7118 C.2       1 <0>         0.2745
     33 N4         -6.4534   -2.8009    2.4831 N.2       1 <0>        -0.4882
     34 H2         -4.9616   -5.4782    2.1156 H         1 <0>         0.4422
     35 C28        -7.3371   -3.4898    1.7482 C.2       1 <0>         0.2881
     36 N5         -6.8420   -4.6833    1.5029 N.2       1 <0>        -0.2726
     37 N6         -5.5801   -4.7309    2.1173 N.pl3     1 <0>        -0.4718
     38 C29        -8.6556   -2.9894    1.2880 C.ar      1 <0>         0.1369
     39 C30        -9.4901   -3.8107    0.5297 C.ar      1 <0>         0.0945
     40 N7        -10.6620   -3.3607    0.1228 N.ar      1 <0>        -0.4324
     41 C31       -11.0450   -2.1336    0.4328 C.ar      1 <0>         0.0715
     42 C32       -10.2202   -1.3155    1.1849 C.ar      1 <0>         0.0570
     43 N8         -9.0481   -1.7587    1.6013 N.ar      1 <0>        -0.4000
     44 H3         -0.9603    1.9042    0.0260 H         1 <0>         0.1267
     45 H4          1.1477    3.1723    0.0078 H         1 <0>         0.1306
     46 H5          3.3021    1.9851   -0.0192 H         1 <0>         0.1283
     47 H6          1.2182   -1.7603   -0.0191 H         1 <0>         0.1193
     48 H7         -0.9264   -0.5557    0.0079 H         1 <0>         0.1217
     49 H8          4.5186    0.4455   -1.6799 H         1 <0>         0.1563
     50 H9          7.5087   -3.6039    0.7294 H         1 <0>         0.1604
     51 H10         9.2154   -3.0236   -0.8643 H         1 <0>         0.1743
     52 H11         2.1952   -0.0661    2.1049 H         1 <0>         0.1439
     53 H12         0.4664   -0.6745    3.7456 H         1 <0>         0.1356
     54 H13         1.6520   -4.7656    3.5045 H         1 <0>         0.1354
     55 H14         3.3793   -4.1785    1.8544 H         1 <0>         0.1426
     56 H15         0.2234   -3.9892    5.3015 H         1 <0>         0.1400
     57 H16        -0.2710   -2.2823    5.4023 H         1 <0>         0.1388
     58 H17        -2.0917   -1.4779    4.0834 H         1 <0>         0.1368
     59 H18        -1.0861   -1.8652    2.6674 H         1 <0>         0.1397
     60 H19        -3.4802   -1.6974    2.0415 H         1 <0>         0.1245
     61 H20        -2.8728   -3.3547    1.8061 H         1 <0>         0.0903
     62 H21        -4.4599   -2.3380    4.2089 H         1 <0>         0.1312
     63 H22        -4.3667   -4.6747    4.9827 H         1 <0>         0.1237
     64 H23        -3.4004   -5.1270    3.5569 H         1 <0>         0.0886
     65 H24        -1.9514   -4.7715    5.5384 H         1 <0>         0.1393
     66 H25        -2.5789   -3.1142    5.6998 H         1 <0>         0.1377
     67 H26        -9.1775   -4.8129    0.2760 H         1 <0>         0.1776
     68 H27       -12.0046   -1.7686    0.0977 H         1 <0>         0.1813
     69 H28       -10.5376   -0.3139    1.4351 H         1 <0>         0.1823
     70 H29        -1.1805   -4.1666    3.3452 H         1 <0>         0.4222
@<TRIPOS>BOND
     1    1    6 ar
     2    1    2 ar
     3    1   44 1
     4    2    3 ar
     5    2   45 1
     6    3    4 ar
     7    3   46 1
     8    4    5 ar
     9    4    7 1
    10    5    6 ar
    11    5   47 1
    12    6   48 1
    13    7   18 ar
    14    7    8 ar
    15    8    9 ar
    16    8   49 1
    17    9   15 1
    18    9   10 ar
    19   10   11 1
    20   10   17 ar
    21   11   12 2
    22   11   50 1
    23   12   13 1
    24   12   51 1
    25   13   14 1
    26   13   15 am
    27   15   16 2
    28   17   18 ar
    29   18   19 1
    30   19   24 ar
    31   19   20 ar
    32   20   21 ar
    33   20   52 1
    34   21   22 ar
    35   21   53 1
    36   22   23 ar
    37   22   25 1
    38   23   24 ar
    39   23   54 1
    40   24   55 1
    41   25   26 1
    42   25   56 1
    43   25   57 1
    44   26   31 1
    45   26   27 1
    46   26   70 1
    47   27   28 1
    48   27   58 1
    49   27   59 1
    50   28   29 1
    51   28   60 1
    52   28   61 1
    53   29   30 1
    54   29   62 1
    55   29   32 1
    56   30   31 1
    57   30   63 1
    58   30   64 1
    59   31   65 1
    60   31   66 1
    61   32   33 2
    62   32   37 1
    63   33   35 1
    64   34   37 1
    65   35   38 1
    66   35   36 2
    67   36   37 1
    68   38   43 ar
    69   38   39 ar
    70   39   40 ar
    71   39   67 1
    72   40   41 ar
    73   41   42 ar
    74   41   68 1
    75   42   43 ar
    76   42   69 1
@<TRIPOS>MOLECULE
CHEMBL1096634
   59    62     0     0     0
SMALL
USER_CHARGES

@<TRIPOS>ATOM
      1 C1         -0.0187    1.5258    0.0104 C.3       1 <0>        -0.1701
      2 C2          0.0021   -0.0041    0.0020 C.3       1 <0>         0.0941
      3 N1         -1.3723   -0.5112    0.0124 N.pl3     1 <0>        -0.4545
      4 C3         -2.1306   -0.7949    1.1239 C.ar      1 <0>         0.1289
      5 C4         -1.9266   -0.7240    2.4962 C.ar      1 <0>        -0.1674
      6 C5         -2.9506   -1.1045    3.3495 C.ar      1 <0>         0.3252
      7 N2         -4.1132   -1.5318    2.8817 N.ar      1 <0>        -0.5221
      8 C6         -4.3629   -1.6197    1.5811 C.ar      1 <0>         0.3703
      9 C7         -3.3756   -1.2525    0.6462 C.ar      1 <0>         0.0060
     10 N3         -3.3205   -1.2274   -0.6974 N.2       1 <0>        -0.4322
     11 C8         -2.1480   -0.7870   -1.0846 C.2       1 <0>         0.3447
     12 C9         -1.7245   -0.6168   -2.4913 C.2       1 <0>         0.1276
     13 C10        -2.5428   -0.9012   -3.6771 C.2       1 <0>         0.3636
     14 N4         -1.8342   -0.6306   -4.7384 N.2       1 <0>        -0.3415
     15 O1         -0.5640   -0.1726   -4.3106 O.3       1 <0>         0.0523
     16 N5         -0.5581   -0.1814   -2.8940 N.2       1 <0>        -0.2443
     17 N6         -3.8474   -1.3768   -3.6698 N.pl3     1 <0>        -0.8016
     18 C11        -5.6377   -2.0889    1.1279 C.1       1 <0>        -0.1370
     19 C12        -6.6828   -2.4736    0.7563 C.1       1 <0>        -0.1025
     20 C13        -7.9932   -2.9559    0.2904 C.3       1 <0>         0.2373
     21 C14        -8.0204   -2.9609   -1.2393 C.3       1 <0>        -0.1412
     22 C15        -8.2278   -4.3760    0.8093 C.3       1 <0>        -0.1758
     23 O2         -9.0207   -2.0932    0.7823 O.3       1 <0>        -0.5412
     24 O3         -2.7574   -1.0381    4.6914 O.3       1 <0>        -0.3141
     25 C16        -3.8460   -1.4422    5.5243 C.3       1 <0>         0.0467
     26 C17        -3.4442   -1.2994    6.9937 C.3       1 <0>         0.0942
     27 H1         -3.1089   -0.2793    7.1812 H         1 <0>         0.1595
     28 C18        -4.6301   -1.6076    7.8710 C.ar      1 <0>        -0.1528
     29 C19        -4.9728   -2.9208    8.1337 C.ar      1 <0>        -0.1175
     30 C20        -6.0606   -3.2035    8.9384 C.ar      1 <0>        -0.1042
     31 C21        -6.8055   -2.1731    9.4808 C.ar      1 <0>        -0.0841
     32 C22        -6.4623   -0.8599    9.2189 C.ar      1 <0>        -0.1051
     33 C23        -5.3719   -0.5771    8.4176 C.ar      1 <0>        -0.0807
     34 N7         -2.3543   -2.2365    7.2967 N.4       1 <0>        -0.6353
     35 H2          1.0039    1.9031    0.0027 H         1 <0>         0.0910
     36 H3         -0.5459    1.8868   -0.8726 H         1 <0>         0.0667
     37 H4         -0.5289    1.8773    0.9072 H         1 <0>         0.0642
     38 H5          0.5123   -0.3556   -0.8948 H         1 <0>         0.1137
     39 H6          0.5293   -0.3651    0.8851 H         1 <0>         0.1030
     40 H7         -0.9835   -0.3778    2.8925 H         1 <0>         0.1525
     41 H8         -4.2958   -1.5500   -2.8273 H         1 <0>         0.4293
     42 H9         -4.3104   -1.5358   -4.5072 H         1 <0>         0.4213
     43 H10        -7.2366   -3.6189   -1.6145 H         1 <0>         0.0783
     44 H11        -8.9907   -3.3180   -1.5843 H         1 <0>         0.0804
     45 H12        -7.8532   -1.9492   -1.6090 H         1 <0>         0.0708
     46 H13        -8.2085   -4.3724    1.8991 H         1 <0>         0.0632
     47 H14        -9.1982   -4.7331    0.4643 H         1 <0>         0.0828
     48 H15        -7.4441   -5.0340    0.4341 H         1 <0>         0.0737
     49 H16        -9.0623   -2.0412    1.7470 H         1 <0>         0.3820
     50 H17        -4.7120   -0.8122    5.3215 H         1 <0>         0.1174
     51 H18        -4.0965   -2.4823    5.3156 H         1 <0>         0.0955
     52 H19        -4.3908   -3.7259    7.7099 H         1 <0>         0.1216
     53 H20        -6.3287   -4.2295    9.1431 H         1 <0>         0.1378
     54 H21        -7.6558   -2.3940   10.1089 H         1 <0>         0.1383
     55 H22        -7.0445   -0.0548    9.6423 H         1 <0>         0.1398
     56 H23        -5.1015    0.4489    8.2160 H         1 <0>         0.1368
     57 H24        -1.5602   -2.0301    6.7093 H         1 <0>         0.4427
     58 H25        -2.0893   -2.1423    8.2657 H         1 <0>         0.4408
     59 H26        -2.6646   -3.1808    7.1231 H         1 <0>         0.4312
@<TRIPOS>BOND
     1    1    2 1
     2    1   35 1
     3    1   36 1
     4    1   37 1
     5    2    3 1
     6    2   38 1
     7    2   39 1
     8    3   11 1
     9    3    4 1
    10    4    9 ar
    11    4    5 ar
    12    5    6 ar
    13    5   40 1
    14    6    7 ar
    15    6   24 1
    16    7    8 ar
    17    8    9 ar
    18    8   18 1
    19    9   10 1
    20   10   11 2
    21   11   12 1
    22   12   16 2
    23   12   13 1
    24   13   14 2
    25   13   17 1
    26   14   15 1
    27   15   16 1
    28   17   41 1
    29   17   42 1
    30   18   19 3
    31   19   20 1
    32   20   21 1
    33   20   22 1
    34   20   23 1
    35   21   43 1
    36   21   44 1
    37   21   45 1
    38   22   46 1
    39   22   47 1
    40   22   48 1
    41   23   49 1
    42   24   25 1
    43   25   26 1
    44   25   50 1
    45   25   51 1
    46   26   27 1
    47   26   28 1
    48   26   34 1
    49   28   33 ar
    50   28   29 ar
    51   29   30 ar
    52   29   52 1
    53   30   31 ar
    54   30   53 1
    55   31   32 ar
    56   31   54 1
    57   32   33 ar
    58   32   55 1
    59   33   56 1
    60   34   57 1
    61   34   58 1
    62   34   59 1
@<TRIPOS>MOLECULE
CHEMBL1096634
   58    61     0     0     0
SMALL
USER_CHARGES

@<TRIPOS>ATOM
      1 C1         -0.0187    1.5258    0.0104 C.3       1 <0>        -0.1690
      2 C2          0.0021   -0.0041    0.0020 C.3       1 <0>         0.0960
      3 N1         -1.3723   -0.5112    0.0124 N.pl3     1 <0>        -0.4577
      4 C3         -2.1306   -0.7949    1.1239 C.ar      1 <0>         0.1351
      5 C4         -1.9266   -0.7240    2.4962 C.ar      1 <0>        -0.1819
      6 C5         -2.9506   -1.1045    3.3495 C.ar      1 <0>         0.3429
      7 N2         -4.1132   -1.5318    2.8817 N.ar      1 <0>        -0.5164
      8 C6         -4.3629   -1.6197    1.5811 C.ar      1 <0>         0.3605
      9 C7         -3.3756   -1.2525    0.6462 C.ar      1 <0>        -0.0066
     10 N3         -3.3205   -1.2274   -0.6974 N.2       1 <0>        -0.4303
     11 C8         -2.1480   -0.7870   -1.0846 C.2       1 <0>         0.3266
     12 C9         -1.7245   -0.6168   -2.4913 C.2       1 <0>         0.1370
     13 C10        -2.5428   -0.9012   -3.6771 C.2       1 <0>         0.3645
     14 N4         -1.8342   -0.6306   -4.7384 N.2       1 <0>        -0.3486
     15 O1         -0.5640   -0.1726   -4.3106 O.3       1 <0>         0.0444
     16 N5         -0.5581   -0.1814   -2.8940 N.2       1 <0>        -0.2483
     17 N6         -3.8474   -1.3768   -3.6698 N.pl3     1 <0>        -0.8014
     18 C11        -5.6377   -2.0889    1.1279 C.1       1 <0>        -0.1188
     19 C12        -6.6828   -2.4736    0.7563 C.1       1 <0>        -0.1237
     20 C13        -7.9932   -2.9559    0.2904 C.3       1 <0>         0.2412
     21 C14        -8.0204   -2.9609   -1.2393 C.3       1 <0>        -0.1387
     22 C15        -8.2278   -4.3760    0.8093 C.3       1 <0>        -0.1759
     23 O2         -9.0207   -2.0932    0.7823 O.3       1 <0>        -0.5448
     24 O3         -2.7574   -1.0381    4.6914 O.3       1 <0>        -0.2966
     25 C16        -3.8460   -1.4422    5.5243 C.3       1 <0>         0.0384
     26 C17        -3.4442   -1.2994    6.9937 C.3       1 <0>         0.1373
     27 H1         -3.1089   -0.2793    7.1812 H         1 <0>         0.1010
     28 C18        -4.6301   -1.6076    7.8710 C.ar      1 <0>        -0.0776
     29 C19        -4.9728   -2.9208    8.1337 C.ar      1 <0>        -0.1021
     30 C20        -6.0606   -3.2035    8.9384 C.ar      1 <0>        -0.1186
     31 C21        -6.8055   -2.1731    9.4808 C.ar      1 <0>        -0.1164
     32 C22        -6.4623   -0.8599    9.2189 C.ar      1 <0>        -0.1179
     33 C23        -5.3719   -0.5771    8.4176 C.ar      1 <0>        -0.1079
     34 N7         -2.3543   -2.2365    7.2967 N.3       1 <0>        -0.8349
     35 H2          1.0039    1.9031    0.0027 H         1 <0>         0.0877
     36 H3         -0.5459    1.8868   -0.8726 H         1 <0>         0.0641
     37 H4         -0.5289    1.8773    0.9072 H         1 <0>         0.0653
     38 H5          0.5123   -0.3556   -0.8948 H         1 <0>         0.1100
     39 H6          0.5293   -0.3651    0.8851 H         1 <0>         0.1027
     40 H7         -0.9835   -0.3778    2.8925 H         1 <0>         0.1515
     41 H8         -4.2958   -1.5500   -2.8273 H         1 <0>         0.4306
     42 H9         -4.3104   -1.5358   -4.5072 H         1 <0>         0.4192
     43 H10        -7.2366   -3.6189   -1.6145 H         1 <0>         0.0771
     44 H11        -8.9907   -3.3180   -1.5843 H         1 <0>         0.0771
     45 H12        -7.8532   -1.9492   -1.6090 H         1 <0>         0.0695
     46 H13        -8.2085   -4.3724    1.8991 H         1 <0>         0.0649
     47 H14        -9.1982   -4.7331    0.4643 H         1 <0>         0.0797
     48 H15        -7.4441   -5.0340    0.4341 H         1 <0>         0.0729
     49 H16        -9.0623   -2.0412    1.7470 H         1 <0>         0.3836
     50 H17        -4.7120   -0.8122    5.3215 H         1 <0>         0.0761
     51 H18        -4.0965   -2.4823    5.3156 H         1 <0>         0.0711
     52 H19        -4.3908   -3.7259    7.7099 H         1 <0>         0.1195
     53 H20        -6.3287   -4.2295    9.1431 H         1 <0>         0.1235
     54 H21        -7.6558   -2.3940   10.1089 H         1 <0>         0.1232
     55 H22        -7.0445   -0.0548    9.6423 H         1 <0>         0.1245
     56 H23        -5.1015    0.4489    8.2160 H         1 <0>         0.1234
     57 H24        -2.6404   -3.1897    7.1307 H         1 <0>         0.3406
     58 H25        -1.5254   -2.0104    6.7675 H         1 <0>         0.3514
@<TRIPOS>BOND
     1    1    2 1
     2    1   35 1
     3    1   36 1
     4    1   37 1
     5    2    3 1
     6    2   38 1
     7    2   39 1
     8    3   11 1
     9    3    4 1
    10    4    9 ar
    11    4    5 ar
    12    5    6 ar
    13    5   40 1
    14    6    7 ar
    15    6   24 1
    16    7    8 ar
    17    8    9 ar
    18    8   18 1
    19    9   10 1
    20   10   11 2
    21   11   12 1
    22   12   16 2
    23   12   13 1
    24   13   14 2
    25   13   17 1
    26   14   15 1
    27   15   16 1
    28   17   41 1
    29   17   42 1
    30   18   19 3
    31   19   20 1
    32   20   21 1
    33   20   22 1
    34   20   23 1
    35   21   43 1
    36   21   44 1
    37   21   45 1
    38   22   46 1
    39   22   47 1
    40   22   48 1
    41   23   49 1
    42   24   25 1
    43   25   26 1
    44   25   50 1
    45   25   51 1
    46   26   27 1
    47   26   28 1
    48   26   34 1
    49   28   33 ar
    50   28   29 ar
    51   29   30 ar
    52   29   52 1
    53   30   31 ar
    54   30   53 1
    55   31   32 ar
    56   31   54 1
    57   32   33 ar
    58   32   55 1
    59   33   56 1
    60   34   57 1
    61   34   58 1
@<TRIPOS>MOLECULE
CHEMBL259998
   42    45     0     0     0
SMALL
USER_CHARGES

@<TRIPOS>ATOM
      1 C1          0.0709    1.2956   -0.1345 C.ar      1 <0>        -0.1141
      2 C2          1.2771    1.9646   -0.2232 C.ar      1 <0>        -0.0951
      3 C3          2.4559    1.2512   -0.3479 C.ar      1 <0>        -0.0154
      4 C4          2.4266   -0.1315   -0.3838 C.ar      1 <0>        -0.0955
      5 C5          1.2198   -0.7994   -0.2951 C.ar      1 <0>        -0.0734
      6 C6          0.0422   -0.0861   -0.1705 C.ar      1 <0>        -0.1309
      7 C7         -1.2733   -0.8149   -0.0734 C.3       1 <0>         0.1250
      8 C8         -1.5908   -1.1001    1.3963 C.3       1 <0>        -0.1496
      9 C9         -2.9448   -1.8101    1.4936 C.3       1 <0>         0.1330
     10 N1         -2.9143   -3.0055    0.6399 N.pl3     1 <0>        -0.6559
     11 C10        -2.5323   -2.8564   -0.7710 C.3       1 <0>         0.1332
     12 C11        -1.1829   -2.1347   -0.8429 C.3       1 <0>        -0.1558
     13 C12        -3.2386   -4.2477    1.1547 C.ar      1 <0>         0.4582
     14 C13        -4.5618   -4.7145    1.1276 C.ar      1 <0>        -0.2032
     15 C14        -5.8372   -4.1852    0.6483 C.2       1 <0>        -0.1800
     16 C15        -6.7673   -5.1185    0.9084 C.2       1 <0>         0.0722
     17 N2         -6.1830   -6.1999    1.5157 N.pl3     1 <0>        -0.5699
     18 H1         -6.6528   -7.0000    1.7985 H         1 <0>         0.4288
     19 C16        -4.8404   -5.9851    1.6636 C.ar      1 <0>         0.3230
     20 N3         -3.8356   -6.6942    2.1761 N.ar      1 <0>        -0.5228
     21 C17        -2.6102   -6.2165    2.1809 C.ar      1 <0>         0.3298
     22 N4         -2.3036   -5.0319    1.6828 N.ar      1 <0>        -0.5448
     23 N5         -2.3374    0.0167   -0.6513 N.4       1 <0>        -0.6370
     24 Cl1         3.9712    2.0908   -0.4599 Cl        1 <0>        -0.0380
     25 H2         -0.8490    1.8522   -0.0327 H         1 <0>         0.1274
     26 H3          1.2993    3.0440   -0.1955 H         1 <0>         0.1468
     27 H4          3.3464   -0.6889   -0.4815 H         1 <0>         0.1484
     28 H5          1.1967   -1.8788   -0.3235 H         1 <0>         0.1458
     29 H6         -0.8145   -1.7377    1.8192 H         1 <0>         0.1205
     30 H7         -1.6319   -0.1612    1.9484 H         1 <0>         0.1001
     31 H8         -3.1301   -2.1036    2.5268 H         1 <0>         0.0997
     32 H9         -3.7343   -1.1392    1.1549 H         1 <0>         0.0584
     33 H10        -2.4454   -3.8403   -1.2320 H         1 <0>         0.0999
     34 H11        -3.2882   -2.2709   -1.2944 H         1 <0>         0.0589
     35 H12        -0.9337   -1.9322   -1.8845 H         1 <0>         0.1029
     36 H13        -0.4104   -2.7625   -0.3989 H         1 <0>         0.1219
     37 H14        -6.0003   -3.2277    0.1762 H         1 <0>         0.1520
     38 H15        -7.8180   -5.0301    0.6748 H         1 <0>         0.1872
     39 H16        -1.8211   -6.8196    2.6052 H         1 <0>         0.2048
     40 H17        -2.1281    0.2054   -1.6201 H         1 <0>         0.4369
     41 H18        -3.2182   -0.4711   -0.5863 H         1 <0>         0.4341
     42 H19        -2.3968    0.8871   -0.1443 H         1 <0>         0.4325
@<TRIPOS>BOND
     1    1    6 ar
     2    1    2 ar
     3    1   25 1
     4    2    3 ar
     5    2   26 1
     6    3    4 ar
     7    3   24 1
     8    4    5 ar
     9    4   27 1
    10    5    6 ar
    11    5   28 1
    12    6    7 1
    13    7   12 1
    14    7    8 1
    15    7   23 1
    16    8    9 1
    17    8   29 1
    18    8   30 1
    19    9   10 1
    20    9   31 1
    21    9   32 1
    22   10   11 1
    23   10   13 1
    24   11   12 1
    25   11   33 1
    26   11   34 1
    27   12   35 1
    28   12   36 1
    29   13   22 ar
    30   13   14 ar
    31   14   19 ar
    32   14   15 1
    33   15   16 2
    34   15   37 1
    35   16   17 1
    36   16   38 1
    37   17   18 1
    38   17   19 1
    39   19   20 ar
    40   20   21 ar
    41   21   22 ar
    42   21   39 1
    43   23   40 1
    44   23   41 1
    45   23   42 1
@<TRIPOS>MOLECULE
CHEMBL407504
   41    44     0     0     0
SMALL
USER_CHARGES

@<TRIPOS>ATOM
      1 C1         -0.0351    1.3940    0.0362 C.ar      1 <0>        -0.1131
      2 C2          1.1477    2.1091    0.0440 C.ar      1 <0>        -0.0942
      3 C3          2.3594    1.4414    0.0500 C.ar      1 <0>        -0.0149
      4 C4          2.3864    0.0581    0.0483 C.ar      1 <0>        -0.0952
      5 C5          1.2029   -0.6559    0.0406 C.ar      1 <0>        -0.0746
      6 C6         -0.0075    0.0119    0.0345 C.ar      1 <0>        -0.1308
      7 C7         -1.2975   -0.7672    0.0265 C.3       1 <0>         0.1189
      8 C8         -1.7425   -1.0313    1.4668 C.3       1 <0>        -0.1467
      9 C9         -3.0715   -1.7931    1.4548 C.3       1 <0>         0.1024
     10 N1         -2.9143   -3.0055    0.6399 N.pl3     1 <0>        -0.5956
     11 C10        -2.4055   -2.8734   -0.7322 C.3       1 <0>         0.0861
     12 C11        -1.0840   -2.0995   -0.6957 C.3       1 <0>        -0.1511
     13 C12        -3.2388   -4.2483    1.1550 C.ar      1 <0>         0.5012
     14 C13        -3.2089   -5.3940    0.3415 C.ar      1 <0>        -0.1027
     15 C14        -3.5480   -6.6280    0.9211 C.ar      1 <0>         0.3044
     16 N2         -3.4374   -7.5594   -0.0802 N.pl3     1 <0>        -0.5751
     17 H1         -3.6060   -8.5112    0.0001 H         1 <0>         0.4380
     18 C15        -3.0479   -6.9016   -1.2089 C.2       1 <0>         0.2750
     19 N3         -2.9144   -5.6313   -0.9593 N.2       1 <0>        -0.4795
     20 N4         -3.8817   -6.6677    2.2071 N.ar      1 <0>        -0.5455
     21 C16        -3.8955   -5.5685    2.9308 C.ar      1 <0>         0.3676
     22 N5         -3.5805   -4.3870    2.4316 N.ar      1 <0>        -0.5826
     23 N6         -2.3326    0.0073   -0.6711 N.4       1 <0>        -0.6365
     24 Cl1         3.8454    2.3388    0.0591 Cl        1 <0>        -0.0369
     25 H2         -0.9810    1.9151    0.0360 H         1 <0>         0.1281
     26 H3          1.1261    3.1889    0.0449 H         1 <0>         0.1475
     27 H4          3.3319   -0.4637    0.0527 H         1 <0>         0.1485
     28 H5          1.2239   -1.7357    0.0389 H         1 <0>         0.1443
     29 H6         -0.9862   -1.6271    1.9778 H         1 <0>         0.1188
     30 H7         -1.8718   -0.0824    1.9874 H         1 <0>         0.1061
     31 H8         -3.3431   -2.0701    2.4734 H         1 <0>         0.1293
     32 H9         -3.8502   -1.1627    1.0254 H         1 <0>         0.0643
     33 H10        -2.2377   -3.8633   -1.1565 H         1 <0>         0.1548
     34 H11        -3.1299   -2.3311   -1.3399 H         1 <0>         0.0650
     35 H12        -0.7446   -1.9109   -1.7142 H         1 <0>         0.1093
     36 H13        -0.3339   -2.6852   -0.1643 H         1 <0>         0.1179
     37 H14        -2.8755   -7.3661   -2.1685 H         1 <0>         0.2316
     38 H15        -4.1717   -5.6356    3.9728 H         1 <0>         0.2108
     39 H16        -2.0393    0.1821   -1.6206 H         1 <0>         0.4379
     40 H17        -3.1964   -0.5142   -0.6765 H         1 <0>         0.4338
     41 H18        -2.4732    0.8859   -0.1954 H         1 <0>         0.4333
@<TRIPOS>BOND
     1    1    6 ar
     2    1    2 ar
     3    1   25 1
     4    2    3 ar
     5    2   26 1
     6    3    4 ar
     7    3   24 1
     8    4    5 ar
     9    4   27 1
    10    5    6 ar
    11    5   28 1
    12    6    7 1
    13    7   12 1
    14    7    8 1
    15    7   23 1
    16    8    9 1
    17    8   29 1
    18    8   30 1
    19    9   10 1
    20    9   31 1
    21    9   32 1
    22   10   11 1
    23   10   13 1
    24   11   12 1
    25   11   33 1
    26   11   34 1
    27   12   35 1
    28   12   36 1
    29   13   22 ar
    30   13   14 ar
    31   14   19 1
    32   14   15 ar
    33   15   16 1
    34   15   20 ar
    35   16   17 1
    36   16   18 1
    37   18   19 2
    38   18   37 1
    39   20   21 ar
    40   21   22 ar
    41   21   38 1
    42   23   39 1
    43   23   40 1
    44   23   41 1
@<TRIPOS>MOLECULE
CHEMBL260000
   48    51     0     0     0
SMALL
USER_CHARGES

@<TRIPOS>ATOM
      1 C1         -0.0232   -3.2295    0.5802 C.ar      1 <0>        -0.1296
      2 C2          0.0742   -4.5480    0.9833 C.ar      1 <0>        -0.1002
      3 C3         -1.0560   -5.2294    1.3986 C.ar      1 <0>        -0.0312
      4 C4         -2.2831   -4.5905    1.4100 C.ar      1 <0>        -0.0945
      5 C5         -2.3792   -3.2720    1.0067 C.ar      1 <0>        -0.0949
      6 C6         -1.2496   -2.5917    0.5918 C.ar      1 <0>        -0.0926
      7 C7         -1.3550   -1.1540    0.1525 C.3       1 <0>        -0.0934
      8 C8         -1.5950   -1.0984   -1.3575 C.3       1 <0>        -0.0691
      9 C9         -1.5722    0.3590   -1.8241 C.3       1 <0>        -0.1444
     10 C10        -2.6519    1.1474   -1.0760 C.3       1 <0>         0.1508
     11 N1         -3.9442    0.4740   -1.2632 N.pl3     1 <0>        -0.6539
     12 C11        -4.0519   -0.9532   -0.9309 C.3       1 <0>         0.1476
     13 C12        -2.9566   -1.7180   -1.6805 C.3       1 <0>        -0.1268
     14 C13        -5.0389    1.1704   -1.7427 C.ar      1 <0>         0.4670
     15 C14        -5.9714    1.7399   -0.8620 C.ar      1 <0>        -0.2059
     16 C15        -6.1179    1.8055    0.5908 C.2       1 <0>        -0.1739
     17 C16        -7.2376    2.5051    0.8370 C.2       1 <0>         0.0658
     18 N2         -7.8146    2.8894   -0.3457 N.pl3     1 <0>        -0.5709
     19 H1         -8.6322    3.4055   -0.4239 H         1 <0>         0.4271
     20 C17        -7.0677    2.4391   -1.3993 C.ar      1 <0>         0.3215
     21 N3         -7.1765    2.5317   -2.7239 N.ar      1 <0>        -0.5280
     22 C18        -6.2786    1.9814   -3.5118 C.ar      1 <0>         0.3273
     23 N4         -5.2312    1.3220   -3.0496 N.ar      1 <0>        -0.5505
     24 C19        -0.4951   -1.8810   -2.0776 C.3       1 <0>        -0.0096
     25 N5          0.7991   -1.2216   -1.8579 N.4       1 <0>        -0.6408
     26 Cl1        -0.9346   -6.8856    1.9046 Cl        1 <0>        -0.0492
     27 H2          0.8598   -2.6962    0.2603 H         1 <0>         0.1121
     28 H3          1.0323   -5.0463    0.9739 H         1 <0>         0.1389
     29 H4         -3.1658   -5.1220    1.7338 H         1 <0>         0.1416
     30 H5         -3.3371   -2.7732    1.0152 H         1 <0>         0.1381
     31 H6         -2.1864   -0.6759    0.6704 H         1 <0>         0.1089
     32 H7         -0.4288   -0.6319    0.3927 H         1 <0>         0.0745
     33 H8         -0.5943    0.7927   -1.6149 H         1 <0>         0.0648
     34 H9         -1.7677    0.4011   -2.8956 H         1 <0>         0.0918
     35 H10        -2.4087    1.1828   -0.0141 H         1 <0>         0.0661
     36 H11        -2.7066    2.1605   -1.4744 H         1 <0>         0.0792
     37 H12        -3.9229   -1.0890    0.1429 H         1 <0>         0.0648
     38 H13        -5.0304   -1.3260   -1.2335 H         1 <0>         0.0796
     39 H14        -3.1390   -1.6563   -2.7534 H         1 <0>         0.0843
     40 H15        -2.9640   -2.7625   -1.3692 H         1 <0>         0.0860
     41 H16        -5.4537    1.3741    1.3251 H         1 <0>         0.1530
     42 H17        -7.6257    2.7305    1.8194 H         1 <0>         0.1860
     43 H18        -6.3998    2.0767   -4.5808 H         1 <0>         0.2019
     44 H19        -0.4562   -2.8974   -1.6856 H         1 <0>         0.1398
     45 H20        -0.7106   -1.9116   -3.1457 H         1 <0>         0.1400
     46 H21         1.5242   -1.7369   -2.3342 H         1 <0>         0.4388
     47 H22         0.7626   -0.2803   -2.2194 H         1 <0>         0.4342
     48 H23         0.9994   -1.1948   -0.8694 H         1 <0>         0.4279
@<TRIPOS>BOND
     1    1    6 ar
     2    1    2 ar
     3    1   27 1
     4    2    3 ar
     5    2   28 1
     6    3    4 ar
     7    3   26 1
     8    4    5 ar
     9    4   29 1
    10    5    6 ar
    11    5   30 1
    12    6    7 1
    13    7    8 1
    14    7   31 1
    15    7   32 1
    16    8   13 1
    17    8    9 1
    18    8   24 1
    19    9   10 1
    20    9   33 1
    21    9   34 1
    22   10   11 1
    23   10   35 1
    24   10   36 1
    25   11   12 1
    26   11   14 1
    27   12   13 1
    28   12   37 1
    29   12   38 1
    30   13   39 1
    31   13   40 1
    32   14   23 ar
    33   14   15 ar
    34   15   20 ar
    35   15   16 1
    36   16   17 2
    37   16   41 1
    38   17   18 1
    39   17   42 1
    40   18   19 1
    41   18   20 1
    42   20   21 ar
    43   21   22 ar
    44   22   23 ar
    45   22   43 1
    46   24   25 1
    47   24   44 1
    48   24   45 1
    49   25   46 1
    50   25   47 1
    51   25   48 1
@<TRIPOS>MOLECULE
CHEMBL228810
   61    64     0     0     0
SMALL
USER_CHARGES

@<TRIPOS>ATOM
      1 C1         -0.5845    1.4328    0.0605 C.3       1 <0>        -0.1290
      2 C2         -0.4961   -0.0716    0.0640 C.2       1 <0>         0.0778
      3 C3         -0.1789   -0.7423    1.2296 C.2       1 <0>        -0.1576
      4 C4         -0.0146   -0.1663    2.5829 C.ar      1 <0>        -0.0869
      5 C5         -0.1159    1.1263    3.0867 C.ar      1 <0>        -0.0940
      6 C6          0.0999    1.3554    4.4363 C.ar      1 <0>         0.1497
      7 C7          0.4160    0.2949    5.2787 C.ar      1 <0>        -0.0782
      8 C8          0.5174   -0.9883    4.7831 C.ar      1 <0>        -0.1124
      9 C9          0.3039   -1.2353    3.4313 C.ar      1 <0>         0.1280
     10 N1          0.3432   -2.4110    2.6882 N.am      1 <0>        -0.6527
     11 C10         0.0619   -2.1815    1.3944 C.2       1 <0>         0.5582
     12 O1          0.0176   -3.0202    0.5118 O.2       1 <0>        -0.5030
     13 N2          0.0002    2.6549    4.9518 N.am      1 <0>        -0.6846
     14 C11        -0.4512    2.8492    6.2068 C.2       1 <0>         0.7058
     15 O2         -0.8606    1.9077    6.8582 O.2       1 <0>        -0.5739
     16 N3         -0.4489    4.0872    6.7396 N.am      1 <0>        -0.8591
     17 C12        -0.7373   -0.7949   -1.1223 C.2       1 <0>         0.0219
     18 C13         0.0304   -0.7582   -2.2762 C.2       1 <0>        -0.1351
     19 C14        -0.5689   -1.6226   -3.1942 C.2       1 <0>        -0.2021
     20 C15        -1.6656   -2.1623   -2.6063 C.2       1 <0>         0.0403
     21 N4         -1.7763   -1.6727   -1.3458 N.pl3     1 <0>        -0.5195
     22 H1         -2.4716   -1.9006   -0.7091 H         1 <0>         0.4195
     23 C16        -0.0831   -1.9057   -4.5924 C.3       1 <0>         0.1953
     24 N5          0.8443   -3.0395   -4.5669 N.am      1 <0>        -0.7168
     25 C17         1.4088   -3.4743   -5.7110 C.2       1 <0>         0.5127
     26 O3          1.1490   -2.9269   -6.7616 O.2       1 <0>        -0.5306
     27 C18         2.3628   -4.6406   -5.6847 C.3       1 <0>        -0.1223
     28 C19         3.5628   -4.3008   -4.7961 C.3       1 <0>        -0.1407
     29 C20         4.5646   -5.4567   -4.8372 C.3       1 <0>        -0.0043
     30 N6          5.0193   -5.6659   -6.2171 N.4       1 <0>        -0.3864
     31 C21         3.8853   -6.0623   -7.0605 C.3       1 <0>        -0.0064
     32 C22         2.8574   -4.9296   -7.1049 C.3       1 <0>        -0.1282
     33 C23         6.0382   -6.7239   -6.2402 C.3       1 <0>        -0.0472
     34 H2          0.3476    1.8524    0.4390 H         1 <0>         0.0879
     35 H3         -0.7544    1.7844   -0.9571 H         1 <0>         0.0817
     36 H4         -1.4105    1.7498    0.6971 H         1 <0>         0.0892
     37 H5         -0.3612    1.9473    2.4293 H         1 <0>         0.1358
     38 H6          0.5838    0.4777    6.3298 H         1 <0>         0.1480
     39 H7          0.7635   -1.8038    5.4471 H         1 <0>         0.1345
     40 H8          0.5435   -3.2852    3.0577 H         1 <0>         0.4184
     41 H9          0.2561    3.4144    4.4054 H         1 <0>         0.4091
     42 H10        -0.1223    4.8383    6.2200 H         1 <0>         0.4004
     43 H11        -0.7738    4.2271    7.6428 H         1 <0>         0.4215
     44 H12         0.9231   -0.1715   -2.4350 H         1 <0>         0.1401
     45 H13        -2.3394   -2.8703   -3.0658 H         1 <0>         0.1675
     46 H14        -0.9333   -2.1460   -5.2308 H         1 <0>         0.0755
     47 H15         0.4285   -1.0266   -4.9843 H         1 <0>         0.0771
     48 H16         1.0521   -3.4773   -3.7267 H         1 <0>         0.4031
     49 H17         1.8530   -5.5196   -5.2904 H         1 <0>         0.1145
     50 H18         4.0406   -3.3918   -5.1616 H         1 <0>         0.0956
     51 H19         3.2250   -4.1482   -3.7710 H         1 <0>         0.1170
     52 H20         5.4201   -5.2181   -4.2054 H         1 <0>         0.1349
     53 H21         4.0858   -6.3650   -4.4713 H         1 <0>         0.1314
     54 H22         4.2394   -6.2707   -8.0701 H         1 <0>         0.1352
     55 H23         3.4211   -6.9577   -6.6472 H         1 <0>         0.1298
     56 H24         2.0154   -5.2266   -7.7302 H         1 <0>         0.1196
     57 H25         3.3206   -4.0337   -7.5184 H         1 <0>         0.0977
     58 H26         5.6102   -7.6490   -5.8539 H         1 <0>         0.1218
     59 H27         6.3766   -6.8801   -7.2644 H         1 <0>         0.1246
     60 H28         6.8837   -6.4277   -5.6193 H         1 <0>         0.1239
     61 H29         5.4182   -4.8098   -6.5721 H         1 <0>         0.4258
@<TRIPOS>BOND
     1    1    2 1
     2    1   34 1
     3    1   35 1
     4    1   36 1
     5    2    3 2
     6    2   17 1
     7    3   11 1
     8    3    4 1
     9    4    9 ar
    10    4    5 ar
    11    5    6 ar
    12    5   37 1
    13    6    7 ar
    14    6   13 1
    15    7    8 ar
    16    7   38 1
    17    8    9 ar
    18    8   39 1
    19    9   10 1
    20   10   11 am
    21   10   40 1
    22   11   12 2
    23   13   14 am
    24   13   41 1
    25   14   15 2
    26   14   16 am
    27   16   42 1
    28   16   43 1
    29   17   21 1
    30   17   18 2
    31   18   19 1
    32   18   44 1
    33   19   20 2
    34   19   23 1
    35   20   21 1
    36   20   45 1
    37   21   22 1
    38   23   24 1
    39   23   46 1
    40   23   47 1
    41   24   25 am
    42   24   48 1
    43   25   26 2
    44   25   27 1
    45   27   32 1
    46   27   28 1
    47   27   49 1
    48   28   29 1
    49   28   50 1
    50   28   51 1
    51   29   30 1
    52   29   52 1
    53   29   53 1
    54   30   31 1
    55   30   33 1
    56   30   61 1
    57   31   32 1
    58   31   54 1
    59   31   55 1
    60   32   56 1
    61   32   57 1
    62   33   58 1
    63   33   59 1
    64   33   60 1
@<TRIPOS>MOLECULE
CHEMBL228756
   51    54     0     0     0
SMALL
USER_CHARGES

@<TRIPOS>ATOM
      1 C1         -0.5845    1.4328    0.0605 C.3       1 <0>        -0.1285
      2 C2         -0.4961   -0.0716    0.0640 C.2       1 <0>         0.0847
      3 C3         -0.1789   -0.7423    1.2296 C.2       1 <0>        -0.1627
      4 C4         -0.0146   -0.1663    2.5829 C.ar      1 <0>        -0.0844
      5 C5         -0.1159    1.1263    3.0867 C.ar      1 <0>        -0.0939
      6 C6          0.0999    1.3554    4.4363 C.ar      1 <0>         0.1451
      7 C7          0.4160    0.2949    5.2787 C.ar      1 <0>        -0.0794
      8 C8          0.5174   -0.9883    4.7831 C.ar      1 <0>        -0.1148
      9 C9          0.3039   -1.2353    3.4313 C.ar      1 <0>         0.1319
     10 N1          0.3432   -2.4110    2.6882 N.am      1 <0>        -0.6541
     11 C10         0.0619   -2.1815    1.3944 C.2       1 <0>         0.5563
     12 O1          0.0176   -3.0202    0.5118 O.2       1 <0>        -0.4952
     13 N2          0.0002    2.6549    4.9518 N.am      1 <0>        -0.6836
     14 C11        -0.4512    2.8492    6.2068 C.2       1 <0>         0.7057
     15 O2         -0.8606    1.9077    6.8582 O.2       1 <0>        -0.5748
     16 N3         -0.4489    4.0872    6.7396 N.am      1 <0>        -0.8605
     17 C12        -0.7373   -0.7949   -1.1223 C.2       1 <0>         0.0130
     18 C13         0.0304   -0.7582   -2.2762 C.2       1 <0>        -0.1304
     19 C14        -0.5689   -1.6226   -3.1942 C.2       1 <0>        -0.1966
     20 C15        -1.6656   -2.1623   -2.6063 C.2       1 <0>         0.0401
     21 N4         -1.7763   -1.6727   -1.3458 N.pl3     1 <0>        -0.5210
     22 H1         -2.4716   -1.9006   -0.7091 H         1 <0>         0.4176
     23 C16        -0.0831   -1.9057   -4.5924 C.3       1 <0>         0.1955
     24 N5          0.8443   -3.0395   -4.5669 N.am      1 <0>        -0.7161
     25 C17         1.4088   -3.4743   -5.7110 C.2       1 <0>         0.5562
     26 O3          1.1485   -2.9258   -6.7636 O.2       1 <0>        -0.5299
     27 C18         2.3466   -4.6209   -5.6852 C.ar      1 <0>        -0.0878
     28 C19         2.6552   -5.2698   -4.4858 C.ar      1 <0>        -0.1422
     29 C20         3.5346   -6.3351   -4.5077 C.ar      1 <0>         0.0972
     30 N6          4.0793   -6.7400   -5.6376 N.ar      1 <0>        -0.4692
     31 C21         3.8156   -6.1565   -6.7898 C.ar      1 <0>         0.0972
     32 C22         2.9431   -5.0878   -6.8604 C.ar      1 <0>        -0.1159
     33 H2          0.3476    1.8524    0.4390 H         1 <0>         0.0873
     34 H3         -0.7544    1.7844   -0.9571 H         1 <0>         0.0821
     35 H4         -1.4105    1.7498    0.6971 H         1 <0>         0.0877
     36 H5         -0.3612    1.9473    2.4293 H         1 <0>         0.1353
     37 H6          0.5838    0.4777    6.3298 H         1 <0>         0.1463
     38 H7          0.7635   -1.8038    5.4471 H         1 <0>         0.1336
     39 H8          0.5435   -3.2852    3.0577 H         1 <0>         0.4183
     40 H9          0.2561    3.4144    4.4054 H         1 <0>         0.4086
     41 H10        -0.1223    4.8383    6.2200 H         1 <0>         0.3999
     42 H11        -0.7738    4.2271    7.6428 H         1 <0>         0.4203
     43 H12         0.9231   -0.1715   -2.4350 H         1 <0>         0.1413
     44 H13        -2.3394   -2.8703   -3.0658 H         1 <0>         0.1685
     45 H14        -0.9333   -2.1460   -5.2308 H         1 <0>         0.0751
     46 H15         0.4285   -1.0266   -4.9843 H         1 <0>         0.0771
     47 H16         1.0521   -3.4773   -3.7267 H         1 <0>         0.4034
     48 H17         2.2132   -4.9429   -3.5562 H         1 <0>         0.1391
     49 H18         3.7792   -6.8428   -3.5864 H         1 <0>         0.1626
     50 H19         4.2851   -6.5214   -7.6914 H         1 <0>         0.1648
     51 H20         2.7281   -4.6174   -7.8085 H         1 <0>         0.1492
@<TRIPOS>BOND
     1    1    2 1
     2    1   33 1
     3    1   34 1
     4    1   35 1
     5    2    3 2
     6    2   17 1
     7    3   11 1
     8    3    4 1
     9    4    9 ar
    10    4    5 ar
    11    5    6 ar
    12    5   36 1
    13    6    7 ar
    14    6   13 1
    15    7    8 ar
    16    7   37 1
    17    8    9 ar
    18    8   38 1
    19    9   10 1
    20   10   11 am
    21   10   39 1
    22   11   12 2
    23   13   14 am
    24   13   40 1
    25   14   15 2
    26   14   16 am
    27   16   41 1
    28   16   42 1
    29   17   21 1
    30   17   18 2
    31   18   19 1
    32   18   43 1
    33   19   20 2
    34   19   23 1
    35   20   21 1
    36   20   44 1
    37   21   22 1
    38   23   24 1
    39   23   45 1
    40   23   46 1
    41   24   25 am
    42   24   47 1
    43   25   26 2
    44   25   27 1
    45   27   32 ar
    46   27   28 ar
    47   28   29 ar
    48   28   48 1
    49   29   30 ar
    50   29   49 1
    51   30   31 ar
    52   31   32 ar
    53   31   50 1
    54   32   51 1
@<TRIPOS>MOLECULE
CHEMBL388739
   51    54     0     0     0
SMALL
USER_CHARGES

@<TRIPOS>ATOM
      1 C1         -0.5845    1.4328    0.0605 C.3       1 <0>        -0.1283
      2 C2         -0.4961   -0.0716    0.0640 C.2       1 <0>         0.0847
      3 C3         -0.1789   -0.7423    1.2296 C.2       1 <0>        -0.1626
      4 C4         -0.0146   -0.1663    2.5829 C.ar      1 <0>        -0.0845
      5 C5         -0.1159    1.1263    3.0867 C.ar      1 <0>        -0.0938
      6 C6          0.0999    1.3554    4.4363 C.ar      1 <0>         0.1446
      7 C7          0.4160    0.2949    5.2787 C.ar      1 <0>        -0.0794
      8 C8          0.5174   -0.9883    4.7831 C.ar      1 <0>        -0.1151
      9 C9          0.3039   -1.2353    3.4313 C.ar      1 <0>         0.1325
     10 N1          0.3432   -2.4110    2.6882 N.am      1 <0>        -0.6543
     11 C10         0.0619   -2.1815    1.3944 C.2       1 <0>         0.5559
     12 O1          0.0176   -3.0202    0.5118 O.2       1 <0>        -0.4940
     13 N2          0.0002    2.6549    4.9518 N.am      1 <0>        -0.6836
     14 C11        -0.4512    2.8492    6.2068 C.2       1 <0>         0.7056
     15 O2         -0.8606    1.9077    6.8582 O.2       1 <0>        -0.5748
     16 N3         -0.4489    4.0872    6.7396 N.am      1 <0>        -0.8606
     17 C12        -0.7373   -0.7949   -1.1223 C.2       1 <0>         0.0125
     18 C13         0.0304   -0.7582   -2.2762 C.2       1 <0>        -0.1302
     19 C14        -0.5689   -1.6226   -3.1942 C.2       1 <0>        -0.1964
     20 C15        -1.6656   -2.1623   -2.6063 C.2       1 <0>         0.0400
     21 N4         -1.7763   -1.6727   -1.3458 N.pl3     1 <0>        -0.5212
     22 H1         -2.4716   -1.9006   -0.7091 H         1 <0>         0.4174
     23 C16        -0.0831   -1.9057   -4.5924 C.3       1 <0>         0.1962
     24 N5          0.8443   -3.0395   -4.5669 N.am      1 <0>        -0.7187
     25 C17         1.4088   -3.4743   -5.7110 C.2       1 <0>         0.5625
     26 O3          1.1484   -2.9257   -6.7639 O.2       1 <0>        -0.5356
     27 C18         2.3447   -4.6185   -5.6852 C.ar      1 <0>        -0.1889
     28 C19         2.9422   -5.0761   -6.8660 C.ar      1 <0>        -0.0168
     29 C20         3.8111   -6.1500   -6.7876 C.ar      1 <0>        -0.1789
     30 C21         4.0593   -6.7318   -5.5571 C.ar      1 <0>         0.1219
     31 N6          3.4817   -6.2791   -4.4608 N.ar      1 <0>        -0.4871
     32 C22         2.6518   -5.2568   -4.4832 C.ar      1 <0>         0.1354
     33 H2          0.3476    1.8524    0.4390 H         1 <0>         0.0871
     34 H3         -0.7544    1.7844   -0.9571 H         1 <0>         0.0821
     35 H4         -1.4105    1.7498    0.6971 H         1 <0>         0.0875
     36 H5         -0.3612    1.9473    2.4293 H         1 <0>         0.1352
     37 H6          0.5838    0.4777    6.3298 H         1 <0>         0.1461
     38 H7          0.7635   -1.8038    5.4471 H         1 <0>         0.1336
     39 H8          0.5435   -3.2852    3.0577 H         1 <0>         0.4184
     40 H9          0.2561    3.4144    4.4054 H         1 <0>         0.4085
     41 H10        -0.1223    4.8383    6.2200 H         1 <0>         0.3998
     42 H11        -0.7738    4.2271    7.6428 H         1 <0>         0.4202
     43 H12         0.9231   -0.1715   -2.4350 H         1 <0>         0.1413
     44 H13        -2.3394   -2.8703   -3.0658 H         1 <0>         0.1684
     45 H14        -0.9333   -2.1460   -5.2308 H         1 <0>         0.0746
     46 H15         0.4285   -1.0266   -4.9843 H         1 <0>         0.0765
     47 H16         1.0521   -3.4773   -3.7267 H         1 <0>         0.4026
     48 H17         2.7301   -4.6032   -7.8135 H         1 <0>         0.1484
     49 H18         4.2902   -6.5303   -7.6777 H         1 <0>         0.1445
     50 H19         4.7368   -7.5704   -5.4931 H         1 <0>         0.1626
     51 H20         2.2020   -4.9121   -3.5638 H         1 <0>         0.1580
@<TRIPOS>BOND
     1    1    2 1
     2    1   33 1
     3    1   34 1
     4    1   35 1
     5    2    3 2
     6    2   17 1
     7    3   11 1
     8    3    4 1
     9    4    9 ar
    10    4    5 ar
    11    5    6 ar
    12    5   36 1
    13    6    7 ar
    14    6   13 1
    15    7    8 ar
    16    7   37 1
    17    8    9 ar
    18    8   38 1
    19    9   10 1
    20   10   11 am
    21   10   39 1
    22   11   12 2
    23   13   14 am
    24   13   40 1
    25   14   15 2
    26   14   16 am
    27   16   41 1
    28   16   42 1
    29   17   21 1
    30   17   18 2
    31   18   19 1
    32   18   43 1
    33   19   20 2
    34   19   23 1
    35   20   21 1
    36   20   44 1
    37   21   22 1
    38   23   24 1
    39   23   45 1
    40   23   46 1
    41   24   25 am
    42   24   47 1
    43   25   26 2
    44   25   27 1
    45   27   32 ar
    46   27   28 ar
    47   28   29 ar
    48   28   48 1
    49   29   30 ar
    50   29   49 1
    51   30   31 ar
    52   30   50 1
    53   31   32 ar
    54   32   51 1
@<TRIPOS>MOLECULE
CHEMBL1079175
   53    58     0     0     0
SMALL
USER_CHARGES

@<TRIPOS>ATOM
      1 C1         -0.0167    1.3792    0.0096 C.ar      1 <0>        -0.1098
      2 C2          1.1686    2.0926    0.0021 C.ar      1 <0>        -0.1129
      3 C3          2.3774    1.4273   -0.0130 C.ar      1 <0>        -0.1018
      4 C4          2.4027    0.0331   -0.0207 C.ar      1 <0>        -0.0532
      5 C5          1.2048   -0.6804   -0.0131 C.ar      1 <0>        -0.0972
      6 C6          0.0021   -0.0041    0.0020 C.ar      1 <0>        -0.1217
      7 C7          3.6976   -0.6873   -0.0375 C.ar      1 <0>        -0.0895
      8 C8          4.6832   -0.3453   -0.9637 C.ar      1 <0>        -0.0030
      9 C9          5.8807   -1.0537   -0.9352 C.ar      1 <0>        -0.0817
     10 C10         6.0621   -2.0835    0.0163 C.ar      1 <0>         0.2098
     11 C11         7.3365   -2.8113    0.0182 C.2       1 <0>        -0.1560
     12 C12         8.2922   -2.4985   -0.8622 C.2       1 <0>         0.1454
     13 N1          8.1430   -1.5000   -1.7996 N.am      1 <0>        -0.4929
     14 C13         6.9753   -0.7619   -1.8753 C.2       1 <0>         0.3089
     15 N2          7.0941    0.1108   -2.8403 N.2       1 <0>        -0.2482
     16 N3          8.3615   -0.0506   -3.4156 N.am      1 <0>        -0.5283
     17 H1          8.7252    0.4618   -4.1545 H         1 <0>         0.4679
     18 C14         8.9833   -1.0478   -2.7556 C.2       1 <0>         0.6564
     19 O1         10.1052   -1.4664   -2.9807 O.2       1 <0>        -0.5212
     20 N4          5.0992   -2.3771    0.8804 N.ar      1 <0>        -0.4545
     21 C15         3.9492   -1.7199    0.8843 C.ar      1 <0>         0.1979
     22 C16         2.9074   -2.0823    1.8731 C.ar      1 <0>        -0.0255
     23 C17         2.0785   -1.0974    2.4096 C.ar      1 <0>        -0.0664
     24 C18         1.1099   -1.4411    3.3303 C.ar      1 <0>        -0.1341
     25 C19         0.9603   -2.7596    3.7214 C.ar      1 <0>        -0.1011
     26 C20         1.7795   -3.7411    3.1928 C.ar      1 <0>        -0.0980
     27 C21         2.7478   -3.4106    2.2670 C.ar      1 <0>        -0.0610
     28 C22        -0.0992   -3.1282    4.7278 C.3       1 <0>         0.0637
     29 C23         0.4698   -3.6059    6.0743 C.3       1 <0>        -0.1268
     30 C24        -0.6447   -4.6656    6.0798 C.3       1 <0>        -0.1586
     31 C25        -0.6528   -4.5514    4.5462 C.3       1 <0>        -0.1320
     32 N5         -1.1431   -2.1030    4.8585 N.4       1 <0>        -0.6175
     33 H2         -0.9603    1.9042    0.0260 H         1 <0>         0.1263
     34 H3          1.1477    3.1723    0.0078 H         1 <0>         0.1304
     35 H4          3.3021    1.9852   -0.0192 H         1 <0>         0.1293
     36 H5          1.2182   -1.7603   -0.0191 H         1 <0>         0.1222
     37 H6         -0.9264   -0.5557    0.0083 H         1 <0>         0.1241
     38 H7          4.5215    0.4452   -1.6816 H         1 <0>         0.1595
     39 H8          7.5029   -3.6026    0.7341 H         1 <0>         0.1729
     40 H9          9.2198   -3.0510   -0.8374 H         1 <0>         0.1807
     41 H10         2.1946   -0.0677    2.1053 H         1 <0>         0.1437
     42 H11         0.4676   -0.6792    3.7467 H         1 <0>         0.1184
     43 H12         1.6579   -4.7688    3.5020 H         1 <0>         0.1392
     44 H13         3.3839   -4.1783    1.8517 H         1 <0>         0.1450
     45 H14         1.4723   -4.0271    5.9999 H         1 <0>         0.1262
     46 H15         0.3768   -2.8703    6.8732 H         1 <0>         0.0946
     47 H16        -0.3188   -5.6401    6.4433 H         1 <0>         0.1018
     48 H17        -1.5684   -4.3253    6.5478 H         1 <0>         0.0931
     49 H18        -1.6520   -4.5791    4.1116 H         1 <0>         0.0957
     50 H19         0.0429   -5.2310    4.0541 H         1 <0>         0.1275
     51 H20        -1.7011   -2.0821    4.0181 H         1 <0>         0.4388
     52 H21        -1.7322   -2.3215    5.6481 H         1 <0>         0.4379
     53 H22        -0.7131   -1.2011    4.9992 H         1 <0>         0.4354
@<TRIPOS>BOND
     1    1    6 ar
     2    1    2 ar
     3    1   33 1
     4    2    3 ar
     5    2   34 1
     6    3    4 ar
     7    3   35 1
     8    4    5 ar
     9    4    7 1
    10    5    6 ar
    11    5   36 1
    12    6   37 1
    13    7   21 ar
    14    7    8 ar
    15    8    9 ar
    16    8   38 1
    17    9   14 1
    18    9   10 ar
    19   10   11 1
    20   10   20 ar
    21   11   12 2
    22   11   39 1
    23   12   13 1
    24   12   40 1
    25   13   18 am
    26   13   14 1
    27   14   15 2
    28   15   16 1
    29   16   17 1
    30   16   18 am
    31   18   19 2
    32   20   21 ar
    33   21   22 1
    34   22   27 ar
    35   22   23 ar
    36   23   24 ar
    37   23   41 1
    38   24   25 ar
    39   24   42 1
    40   25   26 ar
    41   25   28 1
    42   26   27 ar
    43   26   43 1
    44   27   44 1
    45   28   31 1
    46   28   29 1
    47   28   32 1
    48   29   30 1
    49   29   45 1
    50   29   46 1
    51   30   31 1
    52   30   47 1
    53   30   48 1
    54   31   49 1
    55   31   50 1
    56   32   51 1
    57   32   52 1
    58   32   53 1
@<TRIPOS>MOLECULE
CHEMBL260670
   70    76     0     0     0
SMALL
USER_CHARGES

@<TRIPOS>ATOM
      1 C1         -0.0167    1.3791    0.0096 C.ar      1 <0>        -0.1096
      2 C2          1.1686    2.0924    0.0021 C.ar      1 <0>        -0.1121
      3 C3          2.3774    1.4269   -0.0129 C.ar      1 <0>        -0.1036
      4 C4          2.4026    0.0330   -0.0206 C.ar      1 <0>        -0.0493
      5 C5          1.2049   -0.6804   -0.0130 C.ar      1 <0>        -0.0992
      6 C6          0.0021   -0.0041    0.0020 C.ar      1 <0>        -0.1215
      7 C7          3.6978   -0.6877   -0.0373 C.ar      1 <0>        -0.0975
      8 C8          4.6763   -0.3476   -0.9576 C.ar      1 <0>        -0.0226
      9 C9          5.8866   -1.0617   -0.9306 C.ar      1 <0>        -0.1488
     10 C10         6.9249   -0.7709   -1.8343 C.ar      1 <0>        -0.0422
     11 C11         8.0755   -1.5042   -1.7522 C.ar      1 <0>        -0.1697
     12 C12         8.1910   -2.5057   -0.7916 C.ar      1 <0>         0.1689
     13 N1          7.2207   -2.7734    0.0487 N.ar      1 <0>        -0.4654
     14 C13         6.0680   -2.0947    0.0240 C.ar      1 <0>         0.3110
     15 N2          5.0919   -2.3827    0.8895 N.ar      1 <0>        -0.4469
     16 C14         3.9497   -1.7249    0.8891 C.ar      1 <0>         0.2185
     17 C15         2.9058   -2.0841    1.8768 C.ar      1 <0>        -0.0129
     18 C16         2.0780   -1.0970    2.4110 C.ar      1 <0>        -0.0803
     19 C17         1.1071   -1.4378    3.3303 C.ar      1 <0>        -0.1008
     20 C18         0.9539   -2.7557    3.7223 C.ar      1 <0>        -0.1490
     21 C19         1.7720   -3.7394    3.1960 C.ar      1 <0>        -0.0966
     22 C20         2.7430   -3.4117    2.2720 C.ar      1 <0>        -0.0724
     23 C21        -0.1081   -3.1211    4.7271 C.3       1 <0>         0.0432
     24 N3         -1.3578   -3.4409    4.0243 N.4       1 <0>        -0.3835
     25 C22        -1.8543   -2.2403    3.3413 C.3       1 <0>        -0.0114
     26 C23        -3.1119   -2.5872    2.5415 C.3       1 <0>        -0.1378
     27 C24        -4.1873   -3.1153    3.4953 C.3       1 <0>         0.0021
     28 C25        -3.6322   -4.3226    4.2566 C.3       1 <0>        -0.1401
     29 C26        -2.3554   -3.9114    4.9928 C.3       1 <0>        -0.0033
     30 C27        -5.4009   -3.5323    2.7052 C.2       1 <0>         0.2199
     31 N4         -6.6203   -3.0206    2.8397 N.2       1 <0>        -0.5189
     32 C28        -7.4457   -3.6082    1.9978 C.2       1 <0>         0.3517
     33 N5         -6.7396   -4.5261    1.2990 N.pl3     1 <0>        -0.4477
     34 H1         -7.0764   -5.1156    0.6062 H         1 <0>         0.4543
     35 N6         -5.4201   -4.4514    1.7740 N.2       1 <0>        -0.3000
     36 C29        -8.8888   -3.3166    1.8445 C.ar      1 <0>         0.1605
     37 C30        -9.4836   -2.3341    2.6351 C.ar      1 <0>        -0.1103
     38 C31       -10.8339   -2.0726    2.4798 C.ar      1 <0>        -0.0738
     39 C32       -11.5461   -2.8024    1.5385 C.ar      1 <0>        -0.1435
     40 C33       -10.8922   -3.7629    0.7880 C.ar      1 <0>         0.1095
     41 N7         -9.6052   -3.9889    0.9517 N.ar      1 <0>        -0.4750
     42 H2         -0.9603    1.9042    0.0260 H         1 <0>         0.1262
     43 H3          1.1478    3.1722    0.0077 H         1 <0>         0.1299
     44 H4          3.3021    1.9847   -0.0191 H         1 <0>         0.1275
     45 H5          1.2183   -1.7603   -0.0193 H         1 <0>         0.1205
     46 H6         -0.9264   -0.5557    0.0082 H         1 <0>         0.1225
     47 H7          4.5135    0.4431   -1.6750 H         1 <0>         0.1508
     48 H8          6.8159    0.0098   -2.5725 H         1 <0>         0.1479
     49 H9          8.8924   -1.3077   -2.4307 H         1 <0>         0.1508
     50 H10         9.1052   -3.0782   -0.7375 H         1 <0>         0.1737
     51 H11         2.1969   -0.0678    2.1059 H         1 <0>         0.1430
     52 H12         0.4657   -0.6742    3.7449 H         1 <0>         0.1353
     53 H13         1.6480   -4.7664    3.5061 H         1 <0>         0.1359
     54 H14         3.3781   -4.1811    1.8584 H         1 <0>         0.1425
     55 H15         0.2181   -3.9884    5.3013 H         1 <0>         0.1392
     56 H16        -0.2750   -2.2810    5.4012 H         1 <0>         0.1376
     57 H17        -2.0935   -1.4754    4.0800 H         1 <0>         0.1331
     58 H18        -1.0866   -1.8638    2.6652 H         1 <0>         0.1366
     59 H19        -3.4799   -1.6941    2.0366 H         1 <0>         0.1151
     60 H20        -2.8736   -3.3520    1.8023 H         1 <0>         0.0960
     61 H21        -4.4626   -2.3334    4.2030 H         1 <0>         0.1175
     62 H22        -4.3723   -4.6700    4.9775 H         1 <0>         0.1163
     63 H23        -3.4048   -5.1234    3.5529 H         1 <0>         0.0966
     64 H24        -1.9577   -4.7687    5.5360 H         1 <0>         0.1360
     65 H25        -2.5839   -3.1108    5.6963 H         1 <0>         0.1338
     66 H26        -8.8991   -1.7851    3.3586 H         1 <0>         0.1515
     67 H27       -11.3224   -1.3176    3.0780 H         1 <0>         0.1489
     68 H28       -12.6010   -2.6223    1.3936 H         1 <0>         0.1481
     69 H29       -11.4440   -4.3326    0.0549 H         1 <0>         0.1699
     70 H30        -1.1838   -4.1650    3.3435 H         1 <0>         0.4236
@<TRIPOS>BOND
     1    1    6 ar
     2    1    2 ar
     3    1   42 1
     4    2    3 ar
     5    2   43 1
     6    3    4 ar
     7    3   44 1
     8    4    5 ar
     9    4    7 1
    10    5    6 ar
    11    5   45 1
    12    6   46 1
    13    7   16 ar
    14    7    8 ar
    15    8    9 ar
    16    8   47 1
    17    9   14 ar
    18    9   10 ar
    19   10   11 ar
    20   10   48 1
    21   11   12 ar
    22   11   49 1
    23   12   13 ar
    24   12   50 1
    25   13   14 ar
    26   14   15 ar
    27   15   16 ar
    28   16   17 1
    29   17   22 ar
    30   17   18 ar
    31   18   19 ar
    32   18   51 1
    33   19   20 ar
    34   19   52 1
    35   20   21 ar
    36   20   23 1
    37   21   22 ar
    38   21   53 1
    39   22   54 1
    40   23   24 1
    41   23   55 1
    42   23   56 1
    43   24   29 1
    44   24   25 1
    45   24   70 1
    46   25   26 1
    47   25   57 1
    48   25   58 1
    49   26   27 1
    50   26   59 1
    51   26   60 1
    52   27   28 1
    53   27   30 1
    54   27   61 1
    55   28   29 1
    56   28   62 1
    57   28   63 1
    58   29   64 1
    59   29   65 1
    60   30   35 2
    61   30   31 1
    62   31   32 2
    63   32   33 1
    64   32   36 1
    65   33   34 1
    66   33   35 1
    67   36   41 ar
    68   36   37 ar
    69   37   38 ar
    70   37   66 1
    71   38   39 ar
    72   38   67 1
    73   39   40 ar
    74   39   68 1
    75   40   41 ar
    76   40   69 1
@<TRIPOS>MOLECULE
CHEMBL260670
   70    76     0     0     0
SMALL
USER_CHARGES

@<TRIPOS>ATOM
      1 C1         -0.0167    1.3791    0.0096 C.ar      1 <0>        -0.1089
      2 C2          1.1686    2.0924    0.0021 C.ar      1 <0>        -0.1115
      3 C3          2.3774    1.4269   -0.0129 C.ar      1 <0>        -0.1033
      4 C4          2.4026    0.0330   -0.0206 C.ar      1 <0>        -0.0497
      5 C5          1.2049   -0.6804   -0.0130 C.ar      1 <0>        -0.1002
      6 C6          0.0021   -0.0041    0.0020 C.ar      1 <0>        -0.1219
      7 C7          3.6978   -0.6877   -0.0373 C.ar      1 <0>        -0.0976
      8 C8          4.6763   -0.3476   -0.9576 C.ar      1 <0>        -0.0223
      9 C9          5.8866   -1.0617   -0.9306 C.ar      1 <0>        -0.1485
     10 C10         6.9249   -0.7709   -1.8343 C.ar      1 <0>        -0.0422
     11 C11         8.0755   -1.5042   -1.7522 C.ar      1 <0>        -0.1692
     12 C12         8.1910   -2.5057   -0.7916 C.ar      1 <0>         0.1692
     13 N1          7.2207   -2.7734    0.0487 N.ar      1 <0>        -0.4656
     14 C13         6.0680   -2.0947    0.0240 C.ar      1 <0>         0.3108
     15 N2          5.0919   -2.3827    0.8895 N.ar      1 <0>        -0.4467
     16 C14         3.9497   -1.7249    0.8891 C.ar      1 <0>         0.2172
     17 C15         2.9058   -2.0841    1.8768 C.ar      1 <0>        -0.0110
     18 C16         2.0780   -1.0970    2.4110 C.ar      1 <0>        -0.0798
     19 C17         1.1071   -1.4378    3.3303 C.ar      1 <0>        -0.1005
     20 C18         0.9539   -2.7557    3.7223 C.ar      1 <0>        -0.1512
     21 C19         1.7720   -3.7394    3.1960 C.ar      1 <0>        -0.0968
     22 C20         2.7430   -3.4117    2.2720 C.ar      1 <0>        -0.0729
     23 C21        -0.1081   -3.1211    4.7271 C.3       1 <0>         0.0435
     24 N3         -1.3578   -3.4409    4.0243 N.4       1 <0>        -0.3845
     25 C22        -1.8543   -2.2403    3.3413 C.3       1 <0>        -0.0124
     26 C23        -3.1119   -2.5872    2.5415 C.3       1 <0>        -0.1383
     27 C24        -4.1873   -3.1153    3.4953 C.3       1 <0>        -0.0161
     28 C25        -3.6322   -4.3226    4.2566 C.3       1 <0>        -0.1490
     29 C26        -2.3554   -3.9114    4.9928 C.3       1 <0>        -0.0022
     30 C27        -5.4009   -3.5323    2.7052 C.2       1 <0>         0.2714
     31 N4         -6.4546   -2.7950    2.4751 N.2       1 <0>        -0.4885
     32 C28        -7.3384   -3.4836    1.7401 C.2       1 <0>         0.2881
     33 N5         -6.8443   -4.6776    1.4961 N.2       1 <0>        -0.2781
     34 H1         -4.9642   -5.4732    2.1089 H         1 <0>         0.4405
     35 N6         -5.5825   -4.7258    2.1108 N.pl3     1 <0>        -0.4753
     36 C29        -8.6562   -2.9821    1.2784 C.ar      1 <0>         0.1849
     37 C30        -9.4835   -3.8091    0.5216 C.ar      1 <0>        -0.1316
     38 C31       -10.7101   -3.3276    0.0984 C.ar      1 <0>        -0.0745
     39 C32       -11.0695   -2.0331    0.4466 C.ar      1 <0>        -0.1510
     40 C33       -10.1994   -1.2673    1.2001 C.ar      1 <0>         0.1034
     41 N7         -9.0393   -1.7521    1.5943 N.ar      1 <0>        -0.4470
     42 H2         -0.9603    1.9042    0.0260 H         1 <0>         0.1270
     43 H3          1.1478    3.1722    0.0077 H         1 <0>         0.1303
     44 H4          3.3021    1.9847   -0.0191 H         1 <0>         0.1276
     45 H5          1.2183   -1.7603   -0.0193 H         1 <0>         0.1198
     46 H6         -0.9264   -0.5557    0.0082 H         1 <0>         0.1222
     47 H7          4.5135    0.4431   -1.6750 H         1 <0>         0.1510
     48 H8          6.8159    0.0098   -2.5725 H         1 <0>         0.1482
     49 H9          8.8924   -1.3077   -2.4307 H         1 <0>         0.1511
     50 H10         9.1052   -3.0782   -0.7375 H         1 <0>         0.1739
     51 H11         2.1969   -0.0678    2.1059 H         1 <0>         0.1436
     52 H12         0.4657   -0.6742    3.7449 H         1 <0>         0.1357
     53 H13         1.6480   -4.7664    3.5061 H         1 <0>         0.1356
     54 H14         3.3781   -4.1811    1.8584 H         1 <0>         0.1427
     55 H15         0.2181   -3.9884    5.3013 H         1 <0>         0.1399
     56 H16        -0.2750   -2.2810    5.4012 H         1 <0>         0.1388
     57 H17        -2.0935   -1.4754    4.0800 H         1 <0>         0.1367
     58 H18        -1.0866   -1.8638    2.6652 H         1 <0>         0.1394
     59 H19        -3.4799   -1.6941    2.0366 H         1 <0>         0.1243
     60 H20        -2.8736   -3.3520    1.8023 H         1 <0>         0.0898
     61 H21        -4.4626   -2.3334    4.2030 H         1 <0>         0.1305
     62 H22        -4.3723   -4.6700    4.9775 H         1 <0>         0.1233
     63 H23        -3.4048   -5.1234    3.5529 H         1 <0>         0.0882
     64 H24        -1.9577   -4.7687    5.5360 H         1 <0>         0.1390
     65 H25        -2.5839   -3.1108    5.6963 H         1 <0>         0.1376
     66 H26        -9.1719   -4.8117    0.2683 H         1 <0>         0.1436
     67 H27       -11.3726   -3.9452   -0.4898 H         1 <0>         0.1455
     68 H28       -12.0197   -1.6277    0.1317 H         1 <0>         0.1449
     69 H29       -10.4760   -0.2596    1.4727 H         1 <0>         0.1667
     70 H30        -1.1838   -4.1650    3.3435 H         1 <0>         0.4221
@<TRIPOS>BOND
     1    1    6 ar
     2    1    2 ar
     3    1   42 1
     4    2    3 ar
     5    2   43 1
     6    3    4 ar
     7    3   44 1
     8    4    5 ar
     9    4    7 1
    10    5    6 ar
    11    5   45 1
    12    6   46 1
    13    7   16 ar
    14    7    8 ar
    15    8    9 ar
    16    8   47 1
    17    9   14 ar
    18    9   10 ar
    19   10   11 ar
    20   10   48 1
    21   11   12 ar
    22   11   49 1
    23   12   13 ar
    24   12   50 1
    25   13   14 ar
    26   14   15 ar
    27   15   16 ar
    28   16   17 1
    29   17   22 ar
    30   17   18 ar
    31   18   19 ar
    32   18   51 1
    33   19   20 ar
    34   19   52 1
    35   20   21 ar
    36   20   23 1
    37   21   22 ar
    38   21   53 1
    39   22   54 1
    40   23   24 1
    41   23   55 1
    42   23   56 1
    43   24   29 1
    44   24   25 1
    45   24   70 1
    46   25   26 1
    47   25   57 1
    48   25   58 1
    49   26   27 1
    50   26   59 1
    51   26   60 1
    52   27   28 1
    53   27   61 1
    54   27   30 1
    55   28   29 1
    56   28   62 1
    57   28   63 1
    58   29   64 1
    59   29   65 1
    60   30   31 2
    61   30   35 1
    62   31   32 1
    63   32   36 1
    64   32   33 2
    65   33   35 1
    66   34   35 1
    67   36   41 ar
    68   36   37 ar
    69   37   38 ar
    70   37   66 1
    71   38   39 ar
    72   38   67 1
    73   39   40 ar
    74   39   68 1
    75   40   41 ar
    76   40   69 1
@<TRIPOS>MOLECULE
CHEMBL228811
   57    60     0     0     0
SMALL
USER_CHARGES

@<TRIPOS>ATOM
      1 C1         -0.5845    1.4328    0.0605 C.3       1 <0>        -0.1293
      2 C2         -0.4961   -0.0716    0.0640 C.2       1 <0>         0.0767
      3 C3         -0.1789   -0.7423    1.2296 C.2       1 <0>        -0.1568
      4 C4         -0.0146   -0.1663    2.5829 C.ar      1 <0>        -0.0873
      5 C5         -0.1159    1.1263    3.0867 C.ar      1 <0>        -0.0940
      6 C6          0.0999    1.3554    4.4363 C.ar      1 <0>         0.1506
      7 C7          0.4160    0.2949    5.2787 C.ar      1 <0>        -0.0779
      8 C8          0.5174   -0.9883    4.7831 C.ar      1 <0>        -0.1120
      9 C9          0.3039   -1.2353    3.4313 C.ar      1 <0>         0.1272
     10 N1          0.3432   -2.4110    2.6882 N.am      1 <0>        -0.6524
     11 C10         0.0619   -2.1815    1.3944 C.2       1 <0>         0.5586
     12 O1          0.0176   -3.0202    0.5118 O.2       1 <0>        -0.5049
     13 N2          0.0002    2.6549    4.9518 N.am      1 <0>        -0.6848
     14 C11        -0.4512    2.8492    6.2068 C.2       1 <0>         0.7058
     15 O2         -0.8606    1.9077    6.8582 O.2       1 <0>        -0.5738
     16 N3         -0.4489    4.0872    6.7396 N.am      1 <0>        -0.8589
     17 C12        -0.7373   -0.7949   -1.1223 C.2       1 <0>         0.0234
     18 C13         0.0304   -0.7582   -2.2762 C.2       1 <0>        -0.1357
     19 C14        -0.5689   -1.6226   -3.1942 C.2       1 <0>        -0.2040
     20 C15        -1.6656   -2.1623   -2.6063 C.2       1 <0>         0.0413
     21 N4         -1.7763   -1.6727   -1.3458 N.pl3     1 <0>        -0.5191
     22 H1         -2.4716   -1.9006   -0.7091 H         1 <0>         0.4200
     23 C16        -0.0831   -1.9057   -4.5924 C.3       1 <0>         0.1963
     24 N5          0.8443   -3.0395   -4.5669 N.am      1 <0>        -0.7164
     25 C17         1.4088   -3.4743   -5.7110 C.2       1 <0>         0.5094
     26 O3          1.1490   -2.9269   -6.7616 O.2       1 <0>        -0.4963
     27 C18         2.3628   -4.6406   -5.6847 C.3       1 <0>         0.0460
     28 C19         3.7440   -4.1604   -5.2340 C.3       1 <0>         0.0033
     29 N6          4.6786   -5.2936   -5.2278 N.4       1 <0>        -0.5048
     30 C20         4.7883   -5.8474   -6.5838 C.3       1 <0>        -0.0073
     31 C21         3.4158   -6.3416   -7.0458 C.3       1 <0>         0.0301
     32 N7          2.4644   -5.2214   -7.0310 N.3       1 <0>        -0.6664
     33 H2          0.3476    1.8524    0.4390 H         1 <0>         0.0881
     34 H3         -0.7544    1.7844   -0.9571 H         1 <0>         0.0819
     35 H4         -1.4105    1.7498    0.6971 H         1 <0>         0.0895
     36 H5         -0.3612    1.9473    2.4293 H         1 <0>         0.1360
     37 H6          0.5838    0.4777    6.3298 H         1 <0>         0.1483
     38 H7          0.7635   -1.8038    5.4471 H         1 <0>         0.1346
     39 H8          0.5435   -3.2852    3.0577 H         1 <0>         0.4184
     40 H9          0.2561    3.4144    4.4054 H         1 <0>         0.4093
     41 H10        -0.1223    4.8383    6.2200 H         1 <0>         0.4005
     42 H11        -0.7738    4.2271    7.6428 H         1 <0>         0.4217
     43 H12         0.9231   -0.1715   -2.4350 H         1 <0>         0.1406
     44 H13        -2.3394   -2.8703   -3.0658 H         1 <0>         0.1677
     45 H14        -0.9333   -2.1460   -5.2308 H         1 <0>         0.0778
     46 H15         0.4285   -1.0266   -4.9843 H         1 <0>         0.0801
     47 H16         1.0521   -3.4773   -3.7267 H         1 <0>         0.4026
     48 H17         1.9951   -5.3956   -4.9898 H         1 <0>         0.0852
     49 H18         4.1050   -3.3955   -5.9215 H         1 <0>         0.1476
     50 H19         3.6735   -3.7422   -4.2299 H         1 <0>         0.1425
     51 H20         5.5861   -4.9791   -4.9187 H         1 <0>         0.4375
     52 H21         5.1440   -5.0738   -7.2645 H         1 <0>         0.1422
     53 H22         5.4920   -6.6798   -6.5804 H         1 <0>         0.1419
     54 H23         3.4940   -6.7390   -8.0578 H         1 <0>         0.1303
     55 H24         3.0659   -7.1247   -6.3732 H         1 <0>         0.0611
     56 H25         1.5590   -5.5114   -7.3691 H         1 <0>         0.3806
     57 H26         4.3383   -6.0065   -4.6001 H         1 <0>         0.4269
@<TRIPOS>BOND
     1    1    2 1
     2    1   33 1
     3    1   34 1
     4    1   35 1
     5    2    3 2
     6    2   17 1
     7    3   11 1
     8    3    4 1
     9    4    9 ar
    10    4    5 ar
    11    5    6 ar
    12    5   36 1
    13    6    7 ar
    14    6   13 1
    15    7    8 ar
    16    7   37 1
    17    8    9 ar
    18    8   38 1
    19    9   10 1
    20   10   11 am
    21   10   39 1
    22   11   12 2
    23   13   14 am
    24   13   40 1
    25   14   15 2
    26   14   16 am
    27   16   41 1
    28   16   42 1
    29   17   21 1
    30   17   18 2
    31   18   19 1
    32   18   43 1
    33   19   20 2
    34   19   23 1
    35   20   21 1
    36   20   44 1
    37   21   22 1
    38   23   24 1
    39   23   45 1
    40   23   46 1
    41   24   25 am
    42   24   47 1
    43   25   26 2
    44   25   27 1
    45   27   32 1
    46   27   28 1
    47   27   48 1
    48   28   29 1
    49   28   49 1
    50   28   50 1
    51   29   30 1
    52   29   51 1
    53   29   57 1
    54   30   31 1
    55   30   52 1
    56   30   53 1
    57   31   32 1
    58   31   54 1
    59   31   55 1
    60   32   56 1
@<TRIPOS>MOLECULE
CHEMBL228811
   56    59     0     0     0
SMALL
USER_CHARGES

@<TRIPOS>ATOM
      1 C1         -0.5845    1.4328    0.0605 C.3       1 <0>        -0.1285
      2 C2         -0.4961   -0.0716    0.0640 C.2       1 <0>         0.0856
      3 C3         -0.1789   -0.7423    1.2296 C.2       1 <0>        -0.1634
      4 C4         -0.0146   -0.1663    2.5829 C.ar      1 <0>        -0.0842
      5 C5         -0.1159    1.1263    3.0867 C.ar      1 <0>        -0.0940
      6 C6          0.0999    1.3554    4.4363 C.ar      1 <0>         0.1447
      7 C7          0.4160    0.2949    5.2787 C.ar      1 <0>        -0.0795
      8 C8          0.5174   -0.9883    4.7831 C.ar      1 <0>        -0.1151
      9 C9          0.3039   -1.2353    3.4313 C.ar      1 <0>         0.1322
     10 N1          0.3432   -2.4110    2.6882 N.am      1 <0>        -0.6545
     11 C10         0.0619   -2.1815    1.3944 C.2       1 <0>         0.5559
     12 O1          0.0176   -3.0202    0.5118 O.2       1 <0>        -0.4941
     13 N2          0.0002    2.6549    4.9518 N.am      1 <0>        -0.6836
     14 C11        -0.4512    2.8492    6.2068 C.2       1 <0>         0.7056
     15 O2         -0.8606    1.9077    6.8582 O.2       1 <0>        -0.5749
     16 N3         -0.4489    4.0872    6.7396 N.am      1 <0>        -0.8606
     17 C12        -0.7373   -0.7949   -1.1223 C.2       1 <0>         0.0117
     18 C13         0.0304   -0.7582   -2.2762 C.2       1 <0>        -0.1303
     19 C14        -0.5689   -1.6226   -3.1942 C.2       1 <0>        -0.1937
     20 C15        -1.6656   -2.1623   -2.6063 C.2       1 <0>         0.0386
     21 N4         -1.7763   -1.6727   -1.3458 N.pl3     1 <0>        -0.5216
     22 H1         -2.4716   -1.9006   -0.7091 H         1 <0>         0.4170
     23 C16        -0.0831   -1.9057   -4.5924 C.3       1 <0>         0.1963
     24 N5          0.8443   -3.0395   -4.5669 N.am      1 <0>        -0.7248
     25 C17         1.4088   -3.4743   -5.7110 C.2       1 <0>         0.5136
     26 O3          1.1490   -2.9269   -6.7616 O.2       1 <0>        -0.5210
     27 C18         2.3628   -4.6406   -5.6847 C.3       1 <0>         0.0748
     28 C19         3.7442   -4.1603   -5.2336 C.3       1 <0>         0.0700
     29 N6          4.6817   -5.2919   -5.2465 N.3       1 <0>        -0.6902
     30 C20         4.7833   -5.8726   -6.5927 C.3       1 <0>         0.0538
     31 C21         3.4019   -6.3529   -7.0438 C.3       1 <0>         0.0594
     32 N7          2.4644   -5.2212   -7.0309 N.3       1 <0>        -0.6699
     33 H2          0.3476    1.8524    0.4390 H         1 <0>         0.0871
     34 H3         -0.7544    1.7844   -0.9571 H         1 <0>         0.0821
     35 H4         -1.4105    1.7498    0.6971 H         1 <0>         0.0875
     36 H5         -0.3612    1.9473    2.4293 H         1 <0>         0.1352
     37 H6          0.5838    0.4777    6.3298 H         1 <0>         0.1461
     38 H7          0.7635   -1.8038    5.4471 H         1 <0>         0.1335
     39 H8          0.5435   -3.2852    3.0577 H         1 <0>         0.4182
     40 H9          0.2561    3.4144    4.4054 H         1 <0>         0.4085
     41 H10        -0.1223    4.8383    6.2200 H         1 <0>         0.3998
     42 H11        -0.7738    4.2271    7.6428 H         1 <0>         0.4203
     43 H12         0.9231   -0.1715   -2.4350 H         1 <0>         0.1408
     44 H13        -2.3394   -2.8703   -3.0658 H         1 <0>         0.1676
     45 H14        -0.9333   -2.1460   -5.2308 H         1 <0>         0.0714
     46 H15         0.4285   -1.0266   -4.9843 H         1 <0>         0.0736
     47 H16         1.0521   -3.4773   -3.7267 H         1 <0>         0.4028
     48 H17         1.9951   -5.3956   -4.9898 H         1 <0>         0.0672
     49 H18         4.0997   -3.3858   -5.9131 H         1 <0>         0.0472
     50 H19         3.6766   -3.7556   -4.2238 H         1 <0>         0.0834
     51 H20         5.5888   -5.0139   -4.9032 H         1 <0>         0.3493
     52 H21         5.1506   -5.1175   -7.2877 H         1 <0>         0.0429
     53 H22         5.4733   -6.7162   -6.5737 H         1 <0>         0.0824
     54 H23         3.4695   -6.7576   -8.0536 H         1 <0>         0.0854
     55 H24         3.0464   -7.1274   -6.3643 H         1 <0>         0.0410
     56 H25         1.5572   -5.4993   -7.3742 H         1 <0>         0.3507
@<TRIPOS>BOND
     1    1    2 1
     2    1   33 1
     3    1   34 1
     4    1   35 1
     5    2    3 2
     6    2   17 1
     7    3   11 1
     8    3    4 1
     9    4    9 ar
    10    4    5 ar
    11    5    6 ar
    12    5   36 1
    13    6    7 ar
    14    6   13 1
    15    7    8 ar
    16    7   37 1
    17    8    9 ar
    18    8   38 1
    19    9   10 1
    20   10   11 am
    21   10   39 1
    22   11   12 2
    23   13   14 am
    24   13   40 1
    25   14   15 2
    26   14   16 am
    27   16   41 1
    28   16   42 1
    29   17   21 1
    30   17   18 2
    31   18   19 1
    32   18   43 1
    33   19   20 2
    34   19   23 1
    35   20   21 1
    36   20   44 1
    37   21   22 1
    38   23   24 1
    39   23   45 1
    40   23   46 1
    41   24   25 am
    42   24   47 1
    43   25   26 2
    44   25   27 1
    45   27   32 1
    46   27   28 1
    47   27   48 1
    48   28   29 1
    49   28   49 1
    50   28   50 1
    51   29   30 1
    52   29   51 1
    53   30   31 1
    54   30   52 1
    55   30   53 1
    56   31   32 1
    57   31   54 1
    58   31   55 1
    59   32   56 1
@<TRIPOS>MOLECULE
CHEMBL228811
   57    60     0     0     0
SMALL
USER_CHARGES

@<TRIPOS>ATOM
      1 C1         -0.5845    1.4328    0.0605 C.3       1 <0>        -0.1295
      2 C2         -0.4961   -0.0716    0.0640 C.2       1 <0>         0.0769
      3 C3         -0.1789   -0.7423    1.2296 C.2       1 <0>        -0.1568
      4 C4         -0.0146   -0.1663    2.5829 C.ar      1 <0>        -0.0870
      5 C5         -0.1159    1.1263    3.0867 C.ar      1 <0>        -0.0938
      6 C6          0.0999    1.3554    4.4363 C.ar      1 <0>         0.1506
      7 C7          0.4160    0.2949    5.2787 C.ar      1 <0>        -0.0780
      8 C8          0.5174   -0.9883    4.7831 C.ar      1 <0>        -0.1119
      9 C9          0.3039   -1.2353    3.4313 C.ar      1 <0>         0.1271
     10 N1          0.3432   -2.4110    2.6882 N.am      1 <0>        -0.6521
     11 C10         0.0619   -2.1815    1.3944 C.2       1 <0>         0.5595
     12 O1          0.0176   -3.0202    0.5118 O.2       1 <0>        -0.5063
     13 N2          0.0002    2.6549    4.9518 N.am      1 <0>        -0.6847
     14 C11        -0.4512    2.8492    6.2068 C.2       1 <0>         0.7060
     15 O2         -0.8606    1.9077    6.8582 O.2       1 <0>        -0.5742
     16 N3         -0.4489    4.0872    6.7396 N.am      1 <0>        -0.8590
     17 C12        -0.7373   -0.7949   -1.1223 C.2       1 <0>         0.0243
     18 C13         0.0304   -0.7582   -2.2762 C.2       1 <0>        -0.1336
     19 C14        -0.5689   -1.6226   -3.1942 C.2       1 <0>        -0.2032
     20 C15        -1.6656   -2.1623   -2.6063 C.2       1 <0>         0.0381
     21 N4         -1.7763   -1.6727   -1.3458 N.pl3     1 <0>        -0.5194
     22 H1         -2.4716   -1.9006   -0.7091 H         1 <0>         0.4196
     23 C16        -0.0831   -1.9057   -4.5924 C.3       1 <0>         0.1959
     24 N5          0.8443   -3.0395   -4.5669 N.am      1 <0>        -0.7132
     25 C17         1.4088   -3.4743   -5.7110 C.2       1 <0>         0.5164
     26 O3          1.1490   -2.9269   -6.7616 O.2       1 <0>        -0.5082
     27 C18         2.3628   -4.6406   -5.6847 C.3       1 <0>         0.0507
     28 C19         1.5694   -5.9479   -5.6276 C.3       1 <0>        -0.0424
     29 N6          2.4991   -7.0851   -5.6223 N.4       1 <0>        -0.5003
     30 C20         3.3006   -7.0703   -6.8531 C.3       1 <0>        -0.0531
     31 C21         4.1083   -5.7723   -6.9205 C.3       1 <0>         0.0353
     32 N7          3.1895   -4.6253   -6.8998 N.3       1 <0>        -0.6587
     33 H2          0.3476    1.8524    0.4390 H         1 <0>         0.0887
     34 H3         -0.7544    1.7844   -0.9571 H         1 <0>         0.0820
     35 H4         -1.4105    1.7498    0.6971 H         1 <0>         0.0894
     36 H5         -0.3612    1.9473    2.4293 H         1 <0>         0.1361
     37 H6          0.5838    0.4777    6.3298 H         1 <0>         0.1483
     38 H7          0.7635   -1.8038    5.4471 H         1 <0>         0.1346
     39 H8          0.5435   -3.2852    3.0577 H         1 <0>         0.4183
     40 H9          0.2561    3.4144    4.4054 H         1 <0>         0.4094
     41 H10        -0.1223    4.8383    6.2200 H         1 <0>         0.4005
     42 H11        -0.7738    4.2271    7.6428 H         1 <0>         0.4216
     43 H12         0.9231   -0.1715   -2.4350 H         1 <0>         0.1419
     44 H13        -2.3394   -2.8703   -3.0658 H         1 <0>         0.1666
     45 H14        -0.9333   -2.1460   -5.2308 H         1 <0>         0.0777
     46 H15         0.4285   -1.0266   -4.9843 H         1 <0>         0.0811
     47 H16         1.0521   -3.4773   -3.7267 H         1 <0>         0.4037
     48 H17         3.0047   -4.5657   -4.8070 H         1 <0>         0.1290
     49 H18         0.9663   -5.9675   -4.7199 H         1 <0>         0.1449
     50 H19         0.9175   -6.0157   -6.4985 H         1 <0>         0.1391
     51 H20         3.1102   -7.0160   -4.8224 H         1 <0>         0.4304
     52 H21         3.9808   -7.9220   -6.8540 H         1 <0>         0.1443
     53 H22         2.6398   -7.1323   -7.7177 H         1 <0>         0.1330
     54 H23         4.7791   -5.7165   -6.0631 H         1 <0>         0.1045
     55 H24         4.6918   -5.7544   -7.8410 H         1 <0>         0.1317
     56 H25         2.6141   -4.6080   -7.7285 H         1 <0>         0.3727
     57 H26         1.9761   -7.9466   -5.5721 H         1 <0>         0.4353
@<TRIPOS>BOND
     1    1    2 1
     2    1   33 1
     3    1   34 1
     4    1   35 1
     5    2    3 2
     6    2   17 1
     7    3   11 1
     8    3    4 1
     9    4    9 ar
    10    4    5 ar
    11    5    6 ar
    12    5   36 1
    13    6    7 ar
    14    6   13 1
    15    7    8 ar
    16    7   37 1
    17    8    9 ar
    18    8   38 1
    19    9   10 1
    20   10   11 am
    21   10   39 1
    22   11   12 2
    23   13   14 am
    24   13   40 1
    25   14   15 2
    26   14   16 am
    27   16   41 1
    28   16   42 1
    29   17   21 1
    30   17   18 2
    31   18   19 1
    32   18   43 1
    33   19   20 2
    34   19   23 1
    35   20   21 1
    36   20   44 1
    37   21   22 1
    38   23   24 1
    39   23   45 1
    40   23   46 1
    41   24   25 am
    42   24   47 1
    43   25   26 2
    44   25   27 1
    45   27   32 1
    46   27   28 1
    47   27   48 1
    48   28   29 1
    49   28   49 1
    50   28   50 1
    51   29   30 1
    52   29   51 1
    53   29   57 1
    54   30   31 1
    55   30   52 1
    56   30   53 1
    57   31   32 1
    58   31   54 1
    59   31   55 1
    60   32   56 1
@<TRIPOS>MOLECULE
CHEMBL228811
   56    59     0     0     0
SMALL
USER_CHARGES

@<TRIPOS>ATOM
      1 C1         -0.5845    1.4328    0.0605 C.3       1 <0>        -0.1286
      2 C2         -0.4961   -0.0716    0.0640 C.2       1 <0>         0.0858
      3 C3         -0.1789   -0.7423    1.2296 C.2       1 <0>        -0.1636
      4 C4         -0.0146   -0.1663    2.5829 C.ar      1 <0>        -0.0841
      5 C5         -0.1159    1.1263    3.0867 C.ar      1 <0>        -0.0940
      6 C6          0.0999    1.3554    4.4363 C.ar      1 <0>         0.1449
      7 C7          0.4160    0.2949    5.2787 C.ar      1 <0>        -0.0796
      8 C8          0.5174   -0.9883    4.7831 C.ar      1 <0>        -0.1150
      9 C9          0.3039   -1.2353    3.4313 C.ar      1 <0>         0.1320
     10 N1          0.3432   -2.4110    2.6882 N.am      1 <0>        -0.6544
     11 C10         0.0619   -2.1815    1.3944 C.2       1 <0>         0.5562
     12 O1          0.0176   -3.0202    0.5118 O.2       1 <0>        -0.4947
     13 N2          0.0002    2.6549    4.9518 N.am      1 <0>        -0.6836
     14 C11        -0.4512    2.8492    6.2068 C.2       1 <0>         0.7057
     15 O2         -0.8606    1.9077    6.8582 O.2       1 <0>        -0.5749
     16 N3         -0.4489    4.0872    6.7396 N.am      1 <0>        -0.8605
     17 C12        -0.7373   -0.7949   -1.1223 C.2       1 <0>         0.0118
     18 C13         0.0304   -0.7582   -2.2762 C.2       1 <0>        -0.1303
     19 C14        -0.5689   -1.6226   -3.1942 C.2       1 <0>        -0.1941
     20 C15        -1.6656   -2.1623   -2.6063 C.2       1 <0>         0.0388
     21 N4         -1.7763   -1.6727   -1.3458 N.pl3     1 <0>        -0.5215
     22 H1         -2.4716   -1.9006   -0.7091 H         1 <0>         0.4171
     23 C16        -0.0831   -1.9057   -4.5924 C.3       1 <0>         0.1963
     24 N5          0.8443   -3.0395   -4.5669 N.am      1 <0>        -0.7227
     25 C17         1.4088   -3.4743   -5.7110 C.2       1 <0>         0.5227
     26 O3          1.1490   -2.9269   -6.7616 O.2       1 <0>        -0.5320
     27 C18         2.3628   -4.6406   -5.6847 C.3       1 <0>         0.0324
     28 C19         1.5693   -5.9481   -5.6273 C.3       1 <0>         0.0313
     29 N6          2.5010   -7.0845   -5.6412 N.3       1 <0>        -0.6779
     30 C20         3.3276   -7.0692   -6.8562 C.3       1 <0>         0.0130
     31 C21         4.1211   -5.7617   -6.9136 C.3       1 <0>         0.0196
     32 N7          3.1894   -4.6253   -6.8997 N.3       1 <0>        -0.6663
     33 H2          0.3476    1.8524    0.4390 H         1 <0>         0.0872
     34 H3         -0.7544    1.7844   -0.9571 H         1 <0>         0.0821
     35 H4         -1.4105    1.7498    0.6971 H         1 <0>         0.0876
     36 H5         -0.3612    1.9473    2.4293 H         1 <0>         0.1353
     37 H6          0.5838    0.4777    6.3298 H         1 <0>         0.1461
     38 H7          0.7635   -1.8038    5.4471 H         1 <0>         0.1335
     39 H8          0.5435   -3.2852    3.0577 H         1 <0>         0.4181
     40 H9          0.2561    3.4144    4.4054 H         1 <0>         0.4086
     41 H10        -0.1223    4.8383    6.2200 H         1 <0>         0.3998
     42 H11        -0.7738    4.2271    7.6428 H         1 <0>         0.4203
     43 H12         0.9231   -0.1715   -2.4350 H         1 <0>         0.1408
     44 H13        -2.3394   -2.8703   -3.0658 H         1 <0>         0.1679
     45 H14        -0.9333   -2.1460   -5.2308 H         1 <0>         0.0717
     46 H15         0.4285   -1.0266   -4.9843 H         1 <0>         0.0740
     47 H16         1.0521   -3.4773   -3.7267 H         1 <0>         0.4024
     48 H17         3.0048   -4.5656   -4.8071 H         1 <0>         0.1017
     49 H18         0.9774   -5.9744   -4.7124 H         1 <0>         0.0868
     50 H19         0.9072   -6.0100   -6.4910 H         1 <0>         0.0812
     51 H20         3.0764   -7.0905   -4.8124 H         1 <0>         0.3440
     52 H21         4.0176   -7.9128   -6.8372 H         1 <0>         0.0856
     53 H22         2.6855   -7.1438   -7.7338 H         1 <0>         0.0768
     54 H23         4.7831   -5.6998   -6.0499 H         1 <0>         0.0756
     55 H24         4.7130   -5.7354   -7.8286 H         1 <0>         0.0882
     56 H25         2.6140   -4.6192   -7.7285 H         1 <0>         0.3547
@<TRIPOS>BOND
     1    1    2 1
     2    1   33 1
     3    1   34 1
     4    1   35 1
     5    2    3 2
     6    2   17 1
     7    3   11 1
     8    3    4 1
     9    4    9 ar
    10    4    5 ar
    11    5    6 ar
    12    5   36 1
    13    6    7 ar
    14    6   13 1
    15    7    8 ar
    16    7   37 1
    17    8    9 ar
    18    8   38 1
    19    9   10 1
    20   10   11 am
    21   10   39 1
    22   11   12 2
    23   13   14 am
    24   13   40 1
    25   14   15 2
    26   14   16 am
    27   16   41 1
    28   16   42 1
    29   17   21 1
    30   17   18 2
    31   18   19 1
    32   18   43 1
    33   19   20 2
    34   19   23 1
    35   20   21 1
    36   20   44 1
    37   21   22 1
    38   23   24 1
    39   23   45 1
    40   23   46 1
    41   24   25 am
    42   24   47 1
    43   25   26 2
    44   25   27 1
    45   27   32 1
    46   27   28 1
    47   27   48 1
    48   28   29 1
    49   28   49 1
    50   28   50 1
    51   29   30 1
    52   29   51 1
    53   30   31 1
    54   30   52 1
    55   30   53 1
    56   31   32 1
    57   31   54 1
    58   31   55 1
    59   32   56 1
@<TRIPOS>MOLECULE
CHEMBL228812
   48    50     0     0     0
SMALL
USER_CHARGES

@<TRIPOS>ATOM
      1 C1         -0.5845    1.4328    0.0605 C.3       1 <0>        -0.1284
      2 C2         -0.4961   -0.0716    0.0640 C.2       1 <0>         0.0712
      3 C3         -0.1789   -0.7423    1.2296 C.2       1 <0>        -0.1523
      4 C4         -0.0146   -0.1663    2.5829 C.ar      1 <0>        -0.0890
      5 C5         -0.1159    1.1263    3.0867 C.ar      1 <0>        -0.0932
      6 C6          0.0999    1.3554    4.4363 C.ar      1 <0>         0.1502
      7 C7          0.4160    0.2949    5.2787 C.ar      1 <0>        -0.0770
      8 C8          0.5174   -0.9883    4.7831 C.ar      1 <0>        -0.1118
      9 C9          0.3039   -1.2353    3.4313 C.ar      1 <0>         0.1284
     10 N1          0.3432   -2.4110    2.6882 N.am      1 <0>        -0.6519
     11 C10         0.0619   -2.1815    1.3944 C.2       1 <0>         0.5585
     12 O1          0.0176   -3.0202    0.5118 O.2       1 <0>        -0.5044
     13 N2          0.0002    2.6549    4.9518 N.am      1 <0>        -0.6847
     14 C11        -0.4512    2.8492    6.2068 C.2       1 <0>         0.7058
     15 O2         -0.8606    1.9077    6.8582 O.2       1 <0>        -0.5738
     16 N3         -0.4489    4.0872    6.7396 N.am      1 <0>        -0.8589
     17 C12        -0.7373   -0.7949   -1.1223 C.2       1 <0>         0.0283
     18 C13         0.0304   -0.7582   -2.2762 C.2       1 <0>        -0.1351
     19 C14        -0.5689   -1.6226   -3.1942 C.2       1 <0>        -0.2111
     20 C15        -1.6656   -2.1623   -2.6063 C.2       1 <0>         0.0438
     21 N4         -1.7763   -1.6727   -1.3458 N.pl3     1 <0>        -0.5181
     22 H1         -2.4716   -1.9006   -0.7091 H         1 <0>         0.4211
     23 C16        -0.0831   -1.9057   -4.5924 C.3       1 <0>         0.1952
     24 N5          0.8443   -3.0395   -4.5669 N.am      1 <0>        -0.6943
     25 C17         1.4088   -3.4743   -5.7110 C.2       1 <0>         0.4904
     26 O3          1.1490   -2.9269   -6.7616 O.2       1 <0>        -0.5347
     27 C18         2.3628   -4.6406   -5.6847 C.3       1 <0>        -0.0287
     28 N6          2.8363   -4.9166   -7.0476 N.4       1 <0>        -0.6205
     29 H2          0.3476    1.8524    0.4390 H         1 <0>         0.0884
     30 H3         -0.7544    1.7844   -0.9571 H         1 <0>         0.0813
     31 H4         -1.4105    1.7498    0.6971 H         1 <0>         0.0894
     32 H5         -0.3612    1.9473    2.4293 H         1 <0>         0.1360
     33 H6          0.5838    0.4777    6.3298 H         1 <0>         0.1485
     34 H7          0.7635   -1.8038    5.4471 H         1 <0>         0.1352
     35 H8          0.5435   -3.2852    3.0577 H         1 <0>         0.4193
     36 H9          0.2561    3.4144    4.4054 H         1 <0>         0.4092
     37 H10        -0.1223    4.8383    6.2200 H         1 <0>         0.4004
     38 H11        -0.7738    4.2271    7.6428 H         1 <0>         0.4217
     39 H12         0.9231   -0.1715   -2.4350 H         1 <0>         0.1418
     40 H13        -2.3394   -2.8703   -3.0658 H         1 <0>         0.1683
     41 H14        -0.9333   -2.1460   -5.2308 H         1 <0>         0.0828
     42 H15         0.4285   -1.0266   -4.9843 H         1 <0>         0.0848
     43 H16         1.0521   -3.4773   -3.7267 H         1 <0>         0.4132
     44 H17         3.2130   -4.4003   -5.0464 H         1 <0>         0.1630
     45 H18         1.8512   -5.5197   -5.2929 H         1 <0>         0.1629
     46 H19         2.0493   -5.1391   -7.6386 H         1 <0>         0.4422
     47 H20         3.3099   -4.1028   -7.4104 H         1 <0>         0.4423
     48 H21         3.4751   -5.6975   -7.0301 H         1 <0>         0.4443
@<TRIPOS>BOND
     1    1    2 1
     2    1   29 1
     3    1   30 1
     4    1   31 1
     5    2    3 2
     6    2   17 1
     7    3   11 1
     8    3    4 1
     9    4    9 ar
    10    4    5 ar
    11    5    6 ar
    12    5   32 1
    13    6    7 ar
    14    6   13 1
    15    7    8 ar
    16    7   33 1
    17    8    9 ar
    18    8   34 1
    19    9   10 1
    20   10   11 am
    21   10   35 1
    22   11   12 2
    23   13   14 am
    24   13   36 1
    25   14   15 2
    26   14   16 am
    27   16   37 1
    28   16   38 1
    29   17   21 1
    30   17   18 2
    31   18   19 1
    32   18   39 1
    33   19   20 2
    34   19   23 1
    35   20   21 1
    36   20   40 1
    37   21   22 1
    38   23   24 1
    39   23   41 1
    40   23   42 1
    41   24   25 am
    42   24   43 1
    43   25   26 2
    44   25   27 1
    45   27   28 1
    46   27   44 1
    47   27   45 1
    48   28   46 1
    49   28   47 1
    50   28   48 1
@<TRIPOS>MOLECULE
CHEMBL228812
   47    49     0     0     0
SMALL
USER_CHARGES

@<TRIPOS>ATOM
      1 C1         -0.5845    1.4328    0.0605 C.3       1 <0>        -0.1286
      2 C2         -0.4961   -0.0716    0.0640 C.2       1 <0>         0.0861
      3 C3         -0.1789   -0.7423    1.2296 C.2       1 <0>        -0.1639
      4 C4         -0.0146   -0.1663    2.5829 C.ar      1 <0>        -0.0839
      5 C5         -0.1159    1.1263    3.0867 C.ar      1 <0>        -0.0941
      6 C6          0.0999    1.3554    4.4363 C.ar      1 <0>         0.1449
      7 C7          0.4160    0.2949    5.2787 C.ar      1 <0>        -0.0797
      8 C8          0.5174   -0.9883    4.7831 C.ar      1 <0>        -0.1149
      9 C9          0.3039   -1.2353    3.4313 C.ar      1 <0>         0.1319
     10 N1          0.3432   -2.4110    2.6882 N.am      1 <0>        -0.6544
     11 C10         0.0619   -2.1815    1.3944 C.2       1 <0>         0.5560
     12 O1          0.0176   -3.0202    0.5118 O.2       1 <0>        -0.4947
     13 N2          0.0002    2.6549    4.9518 N.am      1 <0>        -0.6836
     14 C11        -0.4512    2.8492    6.2068 C.2       1 <0>         0.7056
     15 O2         -0.8606    1.9077    6.8582 O.2       1 <0>        -0.5748
     16 N3         -0.4489    4.0872    6.7396 N.am      1 <0>        -0.8605
     17 C12        -0.7373   -0.7949   -1.1223 C.2       1 <0>         0.0113
     18 C13         0.0304   -0.7582   -2.2762 C.2       1 <0>        -0.1310
     19 C14        -0.5689   -1.6226   -3.1942 C.2       1 <0>        -0.1938
     20 C15        -1.6656   -2.1623   -2.6063 C.2       1 <0>         0.0389
     21 N4         -1.7763   -1.6727   -1.3458 N.pl3     1 <0>        -0.5216
     22 H1         -2.4716   -1.9006   -0.7091 H         1 <0>         0.4171
     23 C16        -0.0831   -1.9057   -4.5924 C.3       1 <0>         0.1962
     24 N5          0.8443   -3.0395   -4.5669 N.am      1 <0>        -0.7274
     25 C17         1.4088   -3.4743   -5.7110 C.2       1 <0>         0.5079
     26 O3          1.1490   -2.9269   -6.7616 O.2       1 <0>        -0.5291
     27 C18         2.3628   -4.6406   -5.6847 C.3       1 <0>         0.0432
     28 N6          2.8363   -4.9166   -7.0476 N.3       1 <0>        -0.8348
     29 H2          0.3476    1.8524    0.4390 H         1 <0>         0.0871
     30 H3         -0.7544    1.7844   -0.9571 H         1 <0>         0.0821
     31 H4         -1.4105    1.7498    0.6971 H         1 <0>         0.0877
     32 H5         -0.3612    1.9473    2.4293 H         1 <0>         0.1353
     33 H6          0.5838    0.4777    6.3298 H         1 <0>         0.1461
     34 H7          0.7635   -1.8038    5.4471 H         1 <0>         0.1335
     35 H8          0.5435   -3.2852    3.0577 H         1 <0>         0.4181
     36 H9          0.2561    3.4144    4.4054 H         1 <0>         0.4086
     37 H10        -0.1223    4.8383    6.2200 H         1 <0>         0.3998
     38 H11        -0.7738    4.2271    7.6428 H         1 <0>         0.4203
     39 H12         0.9231   -0.1715   -2.4350 H         1 <0>         0.1405
     40 H13        -2.3394   -2.8703   -3.0658 H         1 <0>         0.1682
     41 H14        -0.9333   -2.1460   -5.2308 H         1 <0>         0.0715
     42 H15         0.4285   -1.0266   -4.9843 H         1 <0>         0.0726
     43 H16         1.0521   -3.4773   -3.7267 H         1 <0>         0.4024
     44 H17         3.2130   -4.4003   -5.0464 H         1 <0>         0.0566
     45 H18         1.8512   -5.5197   -5.2929 H         1 <0>         0.1014
     46 H19         3.2574   -4.0962   -7.4572 H         1 <0>         0.3511
     47 H20         3.4780   -5.6952   -7.0567 H         1 <0>         0.3489
@<TRIPOS>BOND
     1    1    2 1
     2    1   29 1
     3    1   30 1
     4    1   31 1
     5    2    3 2
     6    2   17 1
     7    3   11 1
     8    3    4 1
     9    4    9 ar
    10    4    5 ar
    11    5    6 ar
    12    5   32 1
    13    6    7 ar
    14    6   13 1
    15    7    8 ar
    16    7   33 1
    17    8    9 ar
    18    8   34 1
    19    9   10 1
    20   10   11 am
    21   10   35 1
    22   11   12 2
    23   13   14 am
    24   13   36 1
    25   14   15 2
    26   14   16 am
    27   16   37 1
    28   16   38 1
    29   17   21 1
    30   17   18 2
    31   18   19 1
    32   18   39 1
    33   19   20 2
    34   19   23 1
    35   20   21 1
    36   20   40 1
    37   21   22 1
    38   23   24 1
    39   23   41 1
    40   23   42 1
    41   24   25 am
    42   24   43 1
    43   25   26 2
    44   25   27 1
    45   27   28 1
    46   27   44 1
    47   27   45 1
    48   28   46 1
    49   28   47 1
